     212
 i =      135, E =     -8504.7294970886
  N         0.0103143408        2.0421482359        2.4975481082
 Ga         0.0264107837        0.0822960525        2.8330476518
  N        -0.0023892340        0.0490266894        5.0166683879
 Ga         0.0001265765        1.8762396713        5.7974632856
  N        -0.0007172465        1.8889856527        7.8003520381
 Ga         0.0048525913        0.0430511918        8.4390017127
  N         0.0021043009        0.0428178430       10.4170117826
 Ga         0.0022247116        1.8824427834       11.0681734956
  N         0.0006587767        1.8633284595       13.0648584076
 Ga         0.0017269478        0.0426228280       13.8666117009
  N         0.0024629974        0.0414526301       16.0700671789
 Ga         0.0008387277        2.0777916873       16.4774041370
 Ga         0.0731508224        3.7365888941        1.3459623461
  N        -1.4655738538        4.6221945151        2.4666476057
 Ga        -1.6626793316        2.7918084747        3.2511959878
  N        -1.6063627727        2.8324327117        5.2407800778
 Ga        -1.6376610878        4.6935199238        5.8092852356
  N        -1.6171112985        4.6915461878        7.8047593232
 Ga        -1.5954808604        2.8333890626        8.4407632498
  N        -1.5960587496        2.8353399739       10.4353107983
 Ga        -1.6233955234        4.6945189942       11.0704566841
  N        -1.6398127788        4.7040999204       13.0654242216
 Ga        -1.5963637258        2.8352985026       13.6200349889
  N        -1.6239134521        2.8209618539       15.5835638857
 Ga        -1.4448593372        4.5913632789       16.4788598872
  N         0.0086345850        3.7507321676       17.6106981655
  N        -3.2157411443        7.5784527628        2.4915172358
 Ga        -3.1815603637        5.6044947633        2.8294598356
  N        -3.2099550839        5.6066905823        5.0161151703
 Ga        -3.2277821092        7.4364022490        5.7811741487
  N        -3.2161678820        7.4613506553        7.7842967558
 Ga        -3.2161407432        5.6169344897        8.4429949489
  N        -3.2156168835        5.6157167092       10.4188399305
 Ga        -3.2173012883        7.4542685023       11.0700266148
  N        -3.2160254610        7.4348035547       13.0646369939
 Ga        -3.2153107478        5.6147849184       13.8666396883
  N        -3.2138297761        5.6139375321       16.0706233718
 Ga        -3.2157074015        7.6559039362       16.4828798165
 Ga        -3.2463502961        9.3537375695        1.2918452273
  N        -4.7272932280       10.1924787761        2.5011899172
 Ga        -4.9225617236        8.3390070386        3.2145066473
  N        -4.8312792643        8.3914133887        5.2077667912
 Ga        -4.8499088892       10.2648346255        5.7715473185
  N        -4.8330797491       10.2582928673        7.7815450289
 Ga        -4.8136677306        8.4067862746        8.4301097420
  N        -4.8118272438        8.4056300926       10.4270892332
 Ga        -4.8375762212       10.2641718979       11.0666940824
  N        -4.8548895413       10.2739569803       13.0622840075
 Ga        -4.8129382265        8.4064789111       13.6211999902
  N        -4.8406029110        8.3904807909       15.5827746391
 Ga        -4.6576887722       10.1598242768       16.4831387073
  N        -3.2084717922        9.3238519943       17.6181445862
  N         3.2026290181        1.9016854813        2.6173469775
 Ga         3.2083472002        0.1335891740        3.2495360498
  N         3.2180786671        0.0409510257        5.2341809567
 Ga         3.2115661852        1.8943698024        5.8703753215
  N         3.2183061819        1.8979214423        7.8497863590
 Ga         3.2134131234        0.0306921579        8.4292550145
  N         3.2165297203        0.0295293538       10.4274483506
 Ga         3.2169449982        1.8988557582       11.0239216406
  N         3.2169810024        1.8996452095       12.9983870214
 Ga         3.2158638100        0.0306037279       13.6206093331
  N         3.2149291001        0.0621012598       15.5824456433
 Ga         3.2166284640        1.8996713407       15.8614803142
  N         1.4791146994        4.6207245928        2.5515166033
 Ga         1.6843297105        2.7817484976        3.2959204473
  N         1.6107482093        2.8295932439        5.2664581335
 Ga         1.6537673980        4.7048478442        5.8035891966
  N         1.6153107506        4.6922174226        7.8089900744
 Ga         1.5995231793        2.8333510484        8.4339350693
  N         1.5986535558        2.8342705953       10.4327794434
 Ga         1.6248761619        4.6930399645       11.0693888235
  N         1.6404878097        4.7037422684       13.0657711671
 Ga         1.5978585168        2.8347558401       13.6196773391
  N         1.6249591665        2.8194066451       15.5845525961
 Ga         1.4530799073        4.5949556159       16.4777061547
  N        -0.0072699902        7.4628902428        2.7002942587
 Ga        -0.0032117080        5.6056538272        3.3387393611
  N        -0.0028595763        5.6298561467        5.2713087783
 Ga        -0.0096021276        7.4681983710        5.9088332245
  N        -0.0008417961        7.4729990833        7.8671607496
 Ga         0.0013238322        5.5986112302        8.4469437305
  N         0.0001353715        5.6019502145       10.4389452533
 Ga        -0.0005017224        7.4712315239       11.0293353764
  N         0.0000165076        7.4710592188       13.0014826347
 Ga         0.0002740258        5.6008569104       13.6205030266
  N        -0.0006880540        5.6313517767       15.5839262044
 Ga         0.0003696515        7.4705730433       15.8616623192
  N        -1.7027651202       10.1945494139        2.5087161340
 Ga        -1.6228465137        8.3971983346        3.2982439308
  N        -1.5978994047        8.3920693697        5.2410653665
 Ga        -1.5877948814       10.2748827029        5.7966837463
  N        -1.5972617853       10.2593467952        7.7935578436
 Ga        -1.6236863022        8.4065249468        8.4414938575
  N        -1.6199980595        8.4058078811       10.4338357833
 Ga        -1.5945655337       10.2655391704       11.0697468977
  N        -1.5762842184       10.2744874426       13.0645541228
 Ga        -1.6194572646        8.4062981586       13.6218931705
  N        -1.5910921800        8.3887726529       15.5844887471
 Ga        -1.7676962366       10.1632197699       16.4823502162
  N         6.4373555852        2.0197323102        2.5510607879
 Ga         6.4132306398        0.0446151125        2.8814605365
  N         6.4373090761        0.0444396040        5.0311197955
 Ga         6.4318826761        1.8770651984        5.8065845193
  N         6.4342067202        1.8887934540        7.8023127102
 Ga         6.4304138653        0.0441355114        8.4477734789
  N         6.4322500171        0.0431542254       10.4214007780
 Ga         6.4330239153        1.8839480561       11.0695354817
  N         6.4330941573        1.8637513570       13.0653488049
 Ga         6.4326827384        0.0429361039       13.8674291891
  N         6.4335869912        0.0411207384       16.0701361789
 Ga         6.4323613245        2.0766814305       16.4762852160
 Ga         6.4491755415        3.7341561900        1.5432255771
  N         4.9392568333        4.6108659680        2.5187062836
 Ga         4.7053841075        2.7694215058        3.3032099487
  N         4.8241158088        2.8291993210        5.2603949647
 Ga         4.7875627303        4.7089716632        5.8009604994
  N         4.8198481478        4.6901227258        7.8062505357
 Ga         4.8335490680        2.8341441055        8.4378063510
  N         4.8362994419        2.8343587726       10.4339686922
 Ga         4.8108056199        4.6942218600       11.0678598038
  N         4.7935953797        4.7037955234       13.0640867256
 Ga         4.8352388477        2.8353092381       13.6189135491
  N         4.8083635476        2.8211566717       15.5831083174
 Ga         4.9854683847        4.5921359083       16.4770476190
  N         6.4400354299        3.7513511010       17.6089569474
  N         3.2107536142        7.6169161253        2.5333242794
  N         3.2201337118        5.6193886312        5.0597691111
 Ga         3.2256697308        7.4199997487        5.8116284822
  N         3.2164138099        7.4668577742        7.8094425726
 Ga         3.2177978687        5.6137038565        8.4447078211
  N         3.2174523327        5.6148783633       10.4222297517
 Ga         3.2186867369        7.4534460059       11.0711088911
  N         3.2170131773        7.4347894314       13.0659396175
 Ga         3.2174632722        5.6141395731       13.8655404603
  N         3.2179217128        5.6132610596       16.0704009544
 Ga         3.2167413785        7.6541697937       16.4818885070
 Ga         3.2378137982        9.3590130900        1.5255825960
  N         1.7109665732       10.1919032335        2.5355286939
 Ga         1.5748208887        8.3768034203        3.3507687010
  N         1.5957210413        8.3937978121        5.2704046005
 Ga         1.5833252684       10.2791269154        5.8170066074
  N         1.5995972684       10.2615456094        7.8054740437
 Ga         1.6209142555        8.4067644450        8.4505111032
  N         1.6194716833        8.4066521503       10.4399718992
 Ga         1.5940930068       10.2665466326       11.0721296769
  N         1.5769431902       10.2750528464       13.0656778737
 Ga         1.6195696135        8.4062756832       13.6214563446
  N         1.5920573978        8.3904400709       15.5835628914
 Ga         1.7739054160       10.1599421240       16.4828291505
  N         3.2248819040        9.3232677584       17.6178837880
  N         9.6632287190        1.9098009348        2.6154480450
 Ga         9.6623497439        0.1778091008        3.3035156812
  N         9.6489266826        0.0433747225        5.2596995483
 Ga         9.6620939956        1.9080712538        5.8765585262
  N         9.6509414537        1.9007821464        7.8519057279
 Ga         9.6524623729        0.0341454821        8.4398840941
  N         9.6496049633        0.0311575349       10.4336341853
 Ga         9.6496553671        1.9008548375       11.0270342271
  N         9.6488205055        1.9005079438       13.0002759218
 Ga         9.6490230694        0.0308662101       13.6215171394
  N         9.6475512773        0.0619390558       15.5837242856
 Ga         9.6490106205        1.8999911562       15.8623030638
  N         7.9389234340        4.6214359871        2.5318690443
 Ga         8.1596430641        2.7718813252        3.3080781924
  N         8.0452783062        2.8276557598        5.2635351684
 Ga         8.0681282631        4.7037520934        5.7978401768
  N         8.0511698278        4.6925708904        7.7967346423
 Ga         8.0330202713        2.8355410535        8.4369398726
  N         8.0308404369        2.8354939741       10.4326674488
 Ga         8.0562175502        4.6948640274       11.0690859997
  N         8.0728950272        4.7039756803       13.0649841132
 Ga         8.0296256019        2.8354796862       13.6205019173
  N         8.0568313582        2.8196794588       15.5854819462
 Ga         7.8864910643        4.5962329059       16.4769598368
  N         6.4040352691        7.4542299294        2.5353256251
 Ga         6.4270115387        5.7338196469        3.2904034280
  N         6.4336781006        5.6172539628        5.2473772356
 Ga         6.4393724915        7.4730783652        5.8712156154
  N         6.4334300762        7.4710551484        7.8458305189
 Ga         6.4336301568        5.6028290754        8.4379667245
  N         6.4343904852        5.6023892265       10.4332043309
 Ga         6.4349672889        7.4713408956       11.0256036570
  N         6.4336286469        7.4707564629       12.9989138730
 Ga         6.4325746098        5.6013566954       13.6194995432
  N         6.4313606705        5.6311001132       15.5835107410
 Ga         6.4328621095        7.4705756281       15.8618704643
  N         4.7258089436       10.2036127894        2.5308294217
 Ga         4.9370251877        8.3405913917        3.2978297895
  N         4.8259026164        8.4007486894        5.2518070219
 Ga         4.8586441609       10.2742545675        5.8013143097
  N         4.8350655790       10.2617289336        7.7983097878
 Ga         4.8176953832        8.4067521291        8.4398390776
  N         4.8157814116        8.4061502823       10.4342421446
 Ga         4.8416621926       10.2654860789       11.0693617939
  N         4.8567757565       10.2748298820       13.0647086758
 Ga         4.8143491112        8.4060247002       13.6209605985
  N         4.8410995607        8.3889132434       15.5844055722
 Ga         4.6667719501       10.1639761145       16.4818895983
  O         0.6491354220        3.8473969751       -0.4044955522
  H         0.0085349485        7.4497050876        1.6739422999
  C         0.9150521180        2.5888355759       -1.0529767844
  H         1.6214692684        1.9666246154       -0.4776789407
  H        -0.0060330691        2.0072737687       -1.2172983812
  H         1.3599560210        2.8082063185       -2.0347441187
 Ga         3.1814961263        5.5903467288        2.5737610842
  O         3.0781730738        5.7537124415        0.3472600454
  H         2.5521900007        5.0513065398       -0.0996667456
  C         4.3266264278        6.0620024045       -0.3155057446
  H         4.1445928131        6.6973092008       -1.1932225634
  H         4.9621563656        6.5949630495        0.4194633860
  H         4.8475305479        5.1459517203       -0.6324105577
