     212
 i =      135, E =     -8504.7216952487
  N         0.0068406428        2.0466927507        2.4633548781
 Ga         0.0255610660        0.0898768255        2.7984606113
  N        -0.0021182180        0.0523292480        4.9789553645
 Ga         0.0071800716        1.8834679556        5.7502576309
  N         0.0027774998        1.8936326878        7.7564160781
 Ga         0.0059629910        0.0480570908        8.3978373130
  N         0.0022138852        0.0469892757       10.3764660602
 Ga         0.0021888123        1.8856236911       11.0258649369
  N         0.0008241598        1.8652219685       13.0278179259
 Ga         0.0015157318        0.0360812656       13.8192525750
  N         0.0011397584        0.0333095318       16.0300064043
 Ga         0.0007247684        2.0327408888       16.3920001800
 Ga         0.0054859476        3.7202708651        1.2710906582
  N        -1.4694337133        4.6245815084        2.4445544531
 Ga        -1.6621650291        2.7946793196        3.2253447174
  N        -1.6064782275        2.8347673350        5.2101354756
 Ga        -1.6299883767        4.7001344786        5.7614324120
  N        -1.6139394550        4.6971614973        7.7602619422
 Ga        -1.5927535133        2.8383222413        8.3969673211
  N        -1.5952923172        2.8396007174       10.3946852590
 Ga        -1.6236717163        4.6986885596       11.0284822877
  N        -1.6413313619        4.7090904746       13.0292430160
 Ga        -1.5960297256        2.8387324601       13.5735724425
  N        -1.6135931530        2.8298434466       15.5523763563
 Ga        -1.4954521934        4.6255398879       16.3923923136
  N         0.0000305383        3.7596295631       17.5156005780
  N        -3.2208455534        7.5802387145        2.4542635747
 Ga        -3.1777335510        5.6063706862        2.7998614568
  N        -3.2094562846        5.6108651179        4.9808810067
 Ga        -3.2286997115        7.4403446304        5.7432433383
  N        -3.2165053873        7.4653733086        7.7453412011
 Ga        -3.2139782886        5.6202684056        8.4014275990
  N        -3.2148603252        5.6193805968       10.3780024142
 Ga        -3.2170056373        7.4591461405       11.0278759768
  N        -3.2165027903        7.4405737740       13.0212554543
 Ga        -3.2250554238        5.6245358958       13.8203146161
  N        -3.2278449646        5.6257014773       16.0302618213
 Ga        -3.2183031789        7.6839962141       16.4599896165
 Ga        -3.2477610206        9.3557607320        1.2537600504
  N        -4.7312668355       10.1940138847        2.4617249242
 Ga        -4.9274093196        8.3412018113        3.1744055576
  N        -4.8332481043        8.3938586621        5.1674859930
 Ga        -4.8499699344       10.2675753894        5.7320411043
  N        -4.8327790351       10.2614077937        7.7416894525
 Ga        -4.8134217760        8.4106553581        8.3915961451
  N        -4.8120887156        8.4095817221       10.3864759048
 Ga        -4.8365371108       10.2678603524       11.0250452861
  N        -4.8536380995       10.2766826134       13.0196179608
 Ga        -4.8138694279        8.4095444660       13.5834297012
  N        -4.8410527884        8.3937243555       15.5411863887
 Ga        -4.6446801576       10.1543314220       16.4600622490
  N        -3.2088395523        9.3362836474       17.6059519693
  N         3.2089654132        1.9027080718        2.5738463670
 Ga         3.2050274001        0.1362925536        3.2082521313
  N         3.2169013631        0.0442508834        5.1931996481
 Ga         3.2072870353        1.9011983813        5.8212054783
  N         3.2164373532        1.9024136723        7.8039385591
 Ga         3.2136788647        0.0354930845        8.3871669431
  N         3.2170573973        0.0340297270       10.3860212897
 Ga         3.2170256551        1.9023685210       10.9838186459
  N         3.2146902402        1.9047414931       12.9599199556
 Ga         3.2158773821        0.0336916714       13.5842034502
  N         3.2099478405        0.0698232518       15.5434550492
 Ga         3.2178688160        1.9030822332       15.8222749696
  N         1.4886876646        4.6311901251        2.4120601925
 Ga         1.6864997184        2.7996511375        3.2177071053
  N         1.6123672260        2.8408334958        5.2009853856
 Ga         1.6573790004        4.7083918751        5.7603059149
  N         1.6153880706        4.6952720306        7.7670003284
 Ga         1.6004676065        2.8374054599        8.3938980120
  N         1.5984510276        2.8386100420       10.3936907141
 Ga         1.6261180679        4.6977531262       11.0273455955
  N         1.6423681844        4.7087970787       13.0287069125
 Ga         1.5982189725        2.8385871619       13.5727122614
  N         1.6146174264        2.8300631326       15.5516431664
 Ga         1.4956926296        4.6249175874       16.3920857261
  N        -0.0086310673        7.4696342409        2.6538617453
 Ga         0.0158530843        5.6044860977        3.2688549975
  N         0.0069480626        5.6308721493        5.2088357550
 Ga        -0.0084537150        7.4664162573        5.8618580342
  N        -0.0009927373        7.4744597776        7.8222008997
 Ga         0.0025974159        5.6022833613        8.4062712079
  N         0.0005525759        5.6059300908       10.4000368434
 Ga        -0.0009613786        7.4759898533       10.9897493167
  N        -0.0000177441        7.4731570649       12.9635134176
 Ga         0.0009213257        5.6053559364       13.5735413439
  N         0.0006398011        5.6250378052       15.5519569401
 Ga        -0.0002620698        7.4773007776       15.8223835616
  N        -1.7050158155       10.1958117295        2.4699444176
 Ga        -1.6260701942        8.3977923281        3.2586360542
  N        -1.5982919540        8.3938772563        5.2013896336
 Ga        -1.5886978495       10.2777015039        5.7562497989
  N        -1.5973679799       10.2627877857        7.7531166044
 Ga        -1.6227133514        8.4098614293        8.3998102096
  N        -1.6192386064        8.4101200604       10.3924833858
 Ga        -1.5943353253       10.2696892215       11.0317397667
  N        -1.5760607088       10.2787285169       13.0263924403
 Ga        -1.6204774868        8.4106417915       13.5852185279
  N        -1.5919391813        8.3871211758       15.5443198595
 Ga        -1.7763094574       10.1633325724       16.4600614019
  N         6.4411903126        2.0197196122        2.5164024538
 Ga         6.4115895737        0.0459462168        2.8442052681
  N         6.4368858968        0.0466964779        4.9928342511
 Ga         6.4317013187        1.8789925408        5.7688046484
  N         6.4341394387        1.8916222018        7.7641288302
 Ga         6.4298646016        0.0471448681        8.4092000427
  N         6.4320570569        0.0465861030       10.3824995726
 Ga         6.4321271583        1.8866487010       11.0323437647
  N         6.4328840461        1.8668776967       13.0276893312
 Ga         6.4318173561        0.0472676667       13.8412069816
  N         6.4317020364        0.0471202300       16.0337122925
 Ga         6.4321001237        2.0920478979       16.4536965659
 Ga         6.4576344968        3.7306138468        1.5069362705
  N         4.9460284388        4.6066087037        2.4867545764
 Ga         4.7078543081        2.7691251712        3.2665391536
  N         4.8256296281        2.8317498351        5.2221026652
 Ga         4.7868009490        4.7118903431        5.7606133341
  N         4.8204134534        4.6932418756        7.7665011427
 Ga         4.8324020054        2.8367536302        8.3963364094
  N         4.8356593757        2.8370536308       10.3930975284
 Ga         4.8114940621        4.6972263653       11.0260750260
  N         4.7951442579        4.7075262227       13.0211748821
 Ga         4.8360874051        2.8398787595       13.5823691518
  N         4.8017567865        2.8278971648       15.5434186310
 Ga         5.0019665106        4.5900207209       16.4539089997
  N         6.4320485151        3.7509748201       17.5942540130
  N         3.2054446682        7.6230934683        2.4991610587
  N         3.2218257811        5.6226575895        5.0204504863
 Ga         3.2244880821        7.4214135529        5.7716417672
  N         3.2161156646        7.4703762447        7.7698094548
 Ga         3.2182283643        5.6169594689        8.4030624713
  N         3.2175955986        5.6188014840       10.3813941186
 Ga         3.2182415169        7.4583718129       11.0290166464
  N         3.2176153217        7.4405400199       13.0225884044
 Ga         3.2264428320        5.6237682887       13.8185041430
  N         3.2284949990        5.6248630881       16.0300624254
 Ga         3.2188883269        7.6807523699       16.4577698911
 Ga         3.2354471095        9.3660657007        1.4874206494
  N         1.7100414827       10.1963905595        2.4989714209
 Ga         1.5711237612        8.3812451118        3.3129056757
  N         1.5956560576        8.3977354815        5.2315443885
 Ga         1.5825853060       10.2819356610        5.7796434560
  N         1.5993525632       10.2648627774        7.7673976586
 Ga         1.6197589288        8.4094435648        8.4092424683
  N         1.6181461819        8.4106944265       10.3996163200
 Ga         1.5927374148       10.2701611531       11.0357552423
  N         1.5762697275       10.2792829672       13.0293028303
 Ga         1.6211731588        8.4101618191       13.5845727911
  N         1.5925705728        8.3865587975       15.5447933760
 Ga         1.7735430272       10.1648265878       16.4578521582
  N         3.2087843880        9.3362322782       17.6018762136
  N         9.6660022226        1.9133346661        2.5817279298
 Ga         9.6621517460        0.1813663426        3.2679407630
  N         9.6485864112        0.0463952875        5.2236759620
 Ga         9.6624179105        1.9104808938        5.8431543833
  N         9.6514914775        1.9041925844        7.8170352719
 Ga         9.6518696378        0.0371772380        8.4033379557
  N         9.6485354790        0.0347237411       10.3961353250
 Ga         9.6493830650        1.9047565108       10.9865674023
  N         9.6511798981        1.9056192735       12.9618089339
 Ga         9.6500136175        0.0336915216       13.5840888746
  N         9.6553719096        0.0698628310       15.5443581293
 Ga         9.6471366677        1.9036230160       15.8237136876
  N         7.9415649932        4.6244156384        2.4991491235
 Ga         8.1624928732        2.7734971124        3.2752555666
  N         8.0459453377        2.8302895453        5.2293464878
 Ga         8.0704122781        4.7063665916        5.7622576305
  N         8.0520914072        4.6955953682        7.7599026597
 Ga         8.0323601733        2.8384340459        8.3999940179
  N         8.0300698729        2.8385137251       10.3944525416
 Ga         8.0554522503        4.6985811295       11.0273126734
  N         8.0714208373        4.7079641228       13.0216836953
 Ga         8.0290340329        2.8401974165       13.5831687988
  N         8.0630533467        2.8277058920       15.5440610436
 Ga         7.8625538815        4.5901122900       16.4543833689
  N         6.3939981302        7.4529752278        2.4940930925
 Ga         6.4317601384        5.7317881819        3.2602939141
  N         6.4354986442        5.6210078033        5.2129687344
 Ga         6.4398020417        7.4766473895        5.8364333756
  N         6.4335600312        7.4746413069        7.8085342890
 Ga         6.4337086640        5.6058319248        8.3990143250
  N         6.4342116269        5.6064323085       10.3924786765
 Ga         6.4341897780        7.4754790449       10.9850939906
  N         6.4331799065        7.4752115025       12.9564545159
 Ga         6.4328553770        5.6067384571       13.5812866057
  N         6.4322985963        5.6377501585       15.5405241994
 Ga         6.4328737395        7.4752935404       15.8188023452
  N         4.7256771490       10.2059092329        2.4952194775
 Ga         4.9324803386        8.3478736715        3.2688068921
  N         4.8262988363        8.4046707058        5.2178317870
 Ga         4.8590148034       10.2795280529        5.7648907766
  N         4.8352301885       10.2662130963        7.7609619012
 Ga         4.8170941424        8.4104577530        8.4003650052
  N         4.8152703923        8.4101676328       10.3930086073
 Ga         4.8410497977       10.2686173177       11.0278284166
  N         4.8559678001       10.2773695399       13.0216769549
 Ga         4.8152272810        8.4094690303       13.5825521890
  N         4.8415421507        8.3934721879       15.5414873275
 Ga         4.6479984306       10.1554640766       16.4582062910
  O         0.1884013363        3.7121972233       -0.5440727987
  H         0.0067606684        7.4706302559        1.6273291328
  C         0.2464620937        2.4193939773       -1.1674409648
  H         1.0420585019        1.7832026784       -0.7441431701
  H        -0.7078926260        1.8742968533       -1.0840853911
  H         0.4602280999        2.5773776662       -2.2350790310
 Ga         3.2030254106        5.6020317850        2.4881616009
  O         3.5237092856        5.9626950148        0.2317511421
  H         3.2383045126        5.2417948718       -0.3568363651
  C         4.8574858346        6.4287254582       -0.1361892558
  H         4.7739247342        7.1827895169       -0.9314248433
  H         5.3579824699        6.8636747772        0.7635141696
  H         5.4752307455        5.5953760770       -0.5057780428
