       4
 i =        1, E =       -22.8473510708
  H         5.8150136439        2.3172587429       20.6862986894
  H         3.8402482845        2.2964357705       20.7019900414
  C         4.8203424171        2.9085493323       20.5993458122
  O         4.8071650389        4.2410461947       20.6531278826
       4
 i =        2, E =       -22.8650544036
  H         5.8058437411        2.3490415898       20.6420077529
  H         3.8475382481        2.3289504824       20.6576376713
  C         4.8205320273        2.9332006441       20.6206520172
  O         4.8086403294        4.1522479013       20.7204334033
       4
 i =        3, E =       -22.8668078245
  H         5.7757172649        2.3488951572       20.6378884895
  H         3.8776346038        2.3289698642       20.6535141758
  C         4.8203260220        2.9387164515       20.6418926783
  O         4.8087033473        4.1470990248       20.7074538974
       4
 i =        4, E =       -22.8671656268
  H         5.7668226902        2.3519883265       20.6406570363
  H         3.8866133174        2.3326360755       20.6560374921
  C         4.8208584232        2.9297201799       20.6574043122
  O         4.8080369032        4.1495223041       20.6866885143
       4
 i =        5, E =       -22.8671826171
  H         5.7698323688        2.3519127157       20.6374098266
  H         3.8835428218        2.3320829615       20.6531370097
  C         4.8205384502        2.9311887398       20.6609528094
  O         4.8083237753        4.1488899349       20.6893060559
       4
 i =        6, E =       -22.8671836026
  H         5.7695730036        2.3522440682       20.6381235682
  H         3.8838009615        2.3326904782       20.6536447525
  C         4.8207468374        2.9308160368       20.6598940441
  O         4.8080465152        4.1484918303       20.6891723401
       4
 i =        7, E =       -22.8671836025
  H         5.7695730036        2.3522440682       20.6381235682
  H         3.8838009615        2.3326904782       20.6536447525
  C         4.8207468374        2.9308160368       20.6598940441
  O         4.8080465152        4.1484918303       20.6891723401
