%mem=4GB
%chk=initial.chk
# hf/3-21g geom=connectivity

Title Card Required

0 1
 N                 -0.00464849    2.04258627    2.50792144
 Ga                -0.02227636    0.08679336    2.83171223
 N                 -0.00157563    0.04780101    5.02183770
 Ga                -0.00246396    1.87737708    5.79429206
 N                 -0.00258397    1.89161664    7.79910081
 Ga                -0.00465511    0.04685383    8.44311242
 N                 -0.00292276    0.04455699   10.41962496
 Ga                -0.00308927    1.88466531   11.06866478
 N                 -0.00265811    1.86447288   13.06452693
 Ga                -0.00197605    0.04392632   13.86674981
 N                 -0.00086857    0.04209851   16.07089304
 Ga                -0.00253367    2.07957723   16.48118829
 Ga                -0.02840977    3.73177982    1.32225955
 N                 -1.48556857    4.62766740    2.50174244
 Ga                -1.67761711    2.78372756    3.26950331
 N                 -1.61248703    2.83405999    5.25329148
 Ga                -1.63989036    4.69688610    5.80533514
 N                 -1.62030530    4.69579836    7.80168319
 Ga                -1.60150057    2.83417761    8.43392150
 N                 -1.59993612    2.83699112   10.43091898
 Ga                -1.62629551    4.69410113   11.07171048
 N                 -1.64263497    4.70452171   13.06568210
 Ga                -1.59983371    2.83573058   13.62129063
 N                 -1.62630747    2.82057596   15.58438495
 Ga                -1.44808395    4.59083011   16.48229423
 N                  0.00495066    3.75145564   17.61682613
 N                 -3.21069290    7.59654322    2.51939421
 Ga                -3.19210075    5.58826752    2.84535322
 N                 -3.21802918    5.61790063    5.01890796
 Ga                -3.22550365    7.43673711    5.80799696
 N                 -3.21716861    7.46262122    7.79942568
 Ga                -3.21873664    5.61524712    8.44991020
 N                 -3.21887832    5.61631261   10.42269605
 Ga                -3.22028416    7.45492638   11.07396386
 N                 -3.21892320    7.43512664   13.06711616
 Ga                -3.21858615    5.61421011   13.86923709
 N                 -3.21758479    5.61285954   16.07092112
 Ga                -3.21904398    7.65340642   16.48326847
 Ga                -3.24815965    9.34912922    1.49254445
 N                 -4.72631006   10.20131169    2.52534462
 Ga                -4.93730838    8.34755766    3.28964282
 N                 -4.82439570    8.40229875    5.25138634
 Ga                -4.85887258   10.27729933    5.80141243
 N                 -4.83622872   10.26327994    7.79913272
 Ga                -4.81926101    8.40796622    8.43806663
 N                 -4.81531158    8.40671236   10.43179747
 Ga                -4.84233515   10.26617257   11.06967705
 N                 -4.85831070   10.27483647   13.06418071
 Ga                -4.81664282    8.40664570   13.62223492
 N                 -4.84429519    8.39080750   15.58413934
 Ga                -4.66158590   10.16006461   16.48404783
 N                 -3.21161654    9.32278306   17.61611399
 N                  3.20117424    1.91015919    2.61948196
 Ga                 3.20209002    0.17239296    3.29266952
 N                  3.21416571    0.04361660    5.25439920
 Ga                 3.20403307    1.90751067    5.87401229
 N                  3.21329808    1.90151140    7.85127635
 Ga                 3.21121161    0.03572194    8.43987614
 N                  3.21371984    0.03196434   10.43329765
 Ga                 3.21339146    1.90182363   11.02733499
 N                  3.21341755    1.90083347   12.99979639
 Ga                 3.21285266    0.03159501   13.62229298
 N                  3.21175427    0.06233663   15.58439496
 Ga                 3.21342902    1.90043495   15.86459523
 N                  1.48138237    4.62595684    2.50308610
 Ga                 1.66627929    2.79357293    3.26236542
 N                  1.60632982    2.83294053    5.25066106
 Ga                 1.63649903    4.69684410    5.80546598
 N                  1.61368528    4.69467086    7.80313347
 Ga                 1.59438885    2.83505792    8.43739489
 N                  1.59483143    2.83648911   10.43328762
 Ga                 1.62091900    4.69449624   11.07192724
 N                  1.63736800    4.70451345   13.06646159
 Ga                 1.59422802    2.83548186   13.62185318
 N                  1.62094291    2.81922525   15.58589906
 Ga                 1.44912768    4.59424148   16.48156522
 N                  0.00353065    7.46378776    2.69804620
 Ga                 0.00428527    5.60132069    3.32337220
 N                 -0.00331876    5.63261736    5.26299686
 Ga                 0.00338536    7.46895255    5.90759268
 N                 -0.00247077    7.47411226    7.86591742
 Ga                -0.00259911    5.60085436    8.44714040
 N                 -0.00290610    5.60275535   10.43767000
 Ga                -0.00180237    7.47182483   11.03107069
 N                 -0.00225135    7.47138726   13.00232307
 Ga                -0.00299056    5.60114420   13.62273831
 N                 -0.00378418    5.63103844   15.58556983
 Ga                -0.00184525    7.47017560   15.86452655
 N                 -1.71481523   10.19062527    2.52259816
 Ga                -1.58112275    8.38260749    3.33556862
 N                 -1.59777210    8.39501331    5.26052293
 Ga                -1.58539631   10.28190558    5.81244144
 N                 -1.60150984   10.26138639    7.80259613
 Ga                -1.62269354    8.40793818    8.44971276
 N                 -1.62197473    8.40687887   10.43841816
 Ga                -1.59645454   10.26721056   11.07352486
 N                 -1.57886389   10.27526925   13.06691226
 Ga                -1.62191814    8.40657026   13.62370830
 N                 -1.59330747    8.38877066   15.58648985
 Ga                -1.76967637   10.16384622   16.48318073
 N                  6.42677623    2.02858570    2.53961726
 Ga                 6.44316402    0.05067606    2.86710684
 N                  6.42541949    0.04714793    5.02752779
 Ga                 6.42765623    1.87800720    5.80639768
 N                  6.42879327    1.89096470    7.80256222
 Ga                 6.43064590    0.04603351    8.44923484
 N                  6.42938747    0.04436743   10.42223735
 Ga                 6.43011745    1.88552304   11.07017514
 N                  6.42970801    1.86438580   13.06504624
 Ga                 6.43009443    0.04448819   13.86924712
 N                  6.43086034    0.04245114   16.07110813
 Ga                 6.42976468    2.08195762   16.48143238
 Ga                 6.42976877    3.75849639    1.53259497
 N                  4.92654840    4.62657684    2.53116806
 Ga                 4.70787857    2.77646733    3.29898896
 N                  4.81836701    2.83127107    5.26002018
 Ga                 4.79315235    4.70433939    5.80416425
 N                  4.81158462    4.69380779    7.80194900
 Ga                 4.82958140    2.83624647    8.43948611
 N                  4.83240758    2.83654043   10.43358089
 Ga                 4.80729481    4.69589494   11.06976969
 N                  4.79019204    4.70459650   13.06437023
 Ga                 4.83226886    2.83594800   13.62131525
 N                  4.80467987    2.82050135   15.58361076
 Ga                 4.98653105    4.58994555   16.48261751
 N                  6.43739817    3.75213197   17.61487602
 N                  3.20744292    7.58941061    2.50697127
 Ga                 3.18067687    5.60569051    2.83916613
 N                  3.21211952    5.61548382    5.02716549
 Ga                 3.21960622    7.43896223    5.80050147
 N                  3.21150547    7.46351164    7.79756593
 Ga                 3.21288303    5.61692582    8.44791629
 N                  3.21322562    5.61635501   10.42210159
 Ga                 3.21527696    7.45533916   11.07240340
 N                  3.21383206    7.43523884   13.06646702
 Ga                 3.21455488    5.61411212   13.86802960
 N                  3.21531743    5.61254103   16.07143374
 Ga                 3.21404742    7.65033237   16.48134459
 Ga                 3.24594129    9.35158430    1.34369791
 N                  1.70094488   10.19516660    2.51264373
 Ga                 1.60719205    8.39713339    3.31014718
 N                  1.59230350    8.39513865    5.24938092
 Ga                 1.58197962   10.27898721    5.80282357
 N                  1.59457312   10.26147443    7.79815478
 Ga                 1.61880435    8.40911222    8.44748149
 N                  1.61697286    8.40745930   10.43725303
 Ga                 1.59177929   10.26756008   11.07192655
 N                  1.57369681   10.27537112   13.06561007
 Ga                 1.61673701    8.40701073   13.62281565
 N                  1.58997508    8.39117953   15.58548014
 Ga                 1.76813999   10.16189656   16.48202130
 N                  3.22181024    9.32287032   17.61644041
 N                  9.65478236    1.90408708    2.63066447
 Ga                 9.65084887    0.14397853    3.26399813
 N                  9.64238329    0.04297716    5.24400500
 Ga                 9.65235498    1.90005410    5.86600154
 N                  9.64506740    1.90128234    7.84699297
 Ga                 9.64742379    0.03509733    8.43391348
 N                  9.64542910    0.03192090   10.43024971
 Ga                 9.64662768    1.90138175   11.02518562
 N                  9.64612169    1.90059310   12.99873888
 Ga                 9.64581876    0.03141499   13.62152102
 N                  9.64487824    0.06061258   15.58470320
 Ga                 9.64625500    1.89972503   15.86400408
 N                  7.92977654    4.62722788    2.53664426
 Ga                 8.14856471    2.76956103    3.30024366
 N                  8.03685638    2.83116178    5.26094026
 Ga                 8.06154018    4.70308799    5.80153984
 N                  8.04813726    4.69486110    7.79916765
 Ga                 8.03017442    2.83572948    8.43615284
 N                  8.02721653    2.83668371   10.43190255
 Ga                 8.05183297    4.69516502   11.07061596
 N                  8.06943302    4.70465703   13.06530841
 Ga                 8.02690720    2.83573288   13.62130453
 N                  8.05484617    2.81854914   15.58481321
 Ga                 7.87989259    4.59382688   16.48177682
 N                  6.42433625    7.47611589    2.61177617
 Ga                 6.42298233    5.73887847    3.29616830
 N                  6.42823976    5.61923663    5.25706765
 Ga                 6.42302750    7.47802256    5.87066055
 N                  6.42924538    7.47405001    7.84708442
 Ga                 6.42957285    5.60614072    8.43747865
 N                  6.43002864    5.60336430   10.43191826
 Ga                 6.42973409    7.47244640   11.02639024
 N                  6.42962281    7.47164977   12.99884483
 Ga                 6.42945372    5.60219377   13.62142802
 N                  6.42814055    5.63252095   15.58378026
 Ga                 6.42928372    7.47055062   15.86560992
 N                  4.71874215   10.20048026    2.51410945
 Ga                 4.90063192    8.35747932    3.26033174
 N                  4.81848064    8.40157872    5.24038912
 Ga                 4.84700513   10.27427344    5.79033503
 N                  4.83070255   10.26317416    7.79411957
 Ga                 4.81207672    8.40917438    8.43563915
 N                  4.81075299    8.40684206   10.43114032
 Ga                 4.83603571   10.26611062   11.06894458
 N                  4.85321911   10.27496724   13.06446021
 Ga                 4.81104751    8.40667577   13.62197677
 N                  4.83735842    8.38997478   15.58589948
 Ga                 4.66623157   10.16547023   16.48121399
 O                 -0.02177434    3.74513078   -0.49173377
 H                 -0.00146187    7.45398659    1.67153888
 C                  0.61152288    2.62044402   -1.12360674
 H                  1.67922446    2.53770753   -0.86173894
 H                  0.11916105    1.66812495   -0.86635173
 H                  0.53138018    2.76818097   -2.21042832
 O                 -3.27219589    9.37672770   -0.31708551
 C                 -3.97740876   10.48645907   -0.89710296
 H                 -5.04035010   10.50752600   -0.60535199
 H                 -3.52595762   11.45425373   -0.62310059
 H                 -3.91974900   10.37540273   -1.98970172
 O                  3.21521189    9.36301904   -0.46600509
 C                  3.79493862   10.52451451   -1.08252301
 H                  3.28417226   11.45588617   -0.78744453
 H                  4.86645894   10.62942822   -0.84514307
 H                  3.69254015   10.40253530   -2.17067090
 O                  6.33469641    3.76717441   -0.27488558
 C                  6.96799363    2.64248764   -0.90675856
 H                  8.03569521    2.55975116   -0.64489075
 H                  6.47563180    1.69016857   -0.64950354
 H                  6.88785093    2.79022459   -1.99358014
 H                  6.34059205    7.41235268    1.68550288
 H                  9.63307500    1.81301312    1.71538084
 H                  3.21541462    1.90399028    1.61960239

 1 2 1.0 13 1.0 15 1.0 66 1.0
 2
 3 4 1.0
 4 5 1.0 16 1.0 67 1.0
 5 6 1.0 19 1.0 70 1.0
 6 7 1.0
 7 8 1.0
 8 9 1.0 20 1.0 71 1.0
 9 10 1.0 23 1.0 74 1.0
 10
 11
 12 24 1.0 26 1.0 75 1.0
 13
 14 15 1.0 28 1.0 78 1.0
 15 16 1.0
 16 17 1.0
 17 18 1.0 29 1.0 79 1.0
 18 19 1.0 32 1.0 82 1.0
 19 20 1.0
 20 21 1.0
 21 22 1.0 33 1.0 83 1.0
 22 23 1.0 36 1.0 86 1.0
 23 24 1.0
 24 25 1.0
 25 26 1.0 87 1.0
 26 76 1.0
 27 28 1.0 39 1.0 41 1.0 90 1.0
 28
 29 30 1.0
 30 31 1.0 42 1.0 91 1.0
 31 32 1.0 45 1.0 94 1.0
 32 33 1.0
 33 34 1.0
 34 35 1.0 46 1.0 95 1.0
 35 36 1.0 49 1.0 98 1.0
 36
 37
 38 50 1.0 52 1.0 99 1.0
 39 40 1.0 89 1.0
 40 41 1.0
 41 42 1.0
 42 43 1.0
 43 44 1.0
 44 45 1.0
 45 46 1.0
 46 47 1.0
 47 48 1.0
 48 49 1.0
 49 50 1.0
 50 51 1.0
 51 52 1.0
 52 100 1.0
 53 54 1.0 66 1.0 115 1.0 224 1.0
 54 55 1.0
 55 56 1.0
 56 57 1.0 67 1.0 116 1.0
 57 58 1.0 70 1.0 119 1.0
 58 59 1.0
 59 60 1.0
 60 61 1.0 71 1.0 120 1.0
 61 62 1.0 74 1.0 123 1.0
 62 63 1.0
 63 64 1.0
 64 75 1.0 124 1.0
 65 66 1.0 78 1.0 128 1.0
 66 67 1.0
 67 68 1.0
 68 69 1.0 79 1.0 129 1.0
 69 70 1.0 82 1.0 132 1.0
 70 71 1.0
 71 72 1.0
 72 73 1.0 83 1.0 133 1.0
 73 74 1.0 86 1.0 136 1.0
 74 75 1.0
 75 76 1.0
 76 87 1.0
 77 78 1.0 90 1.0 141 1.0 202 1.0
 78 79 1.0
 79 80 1.0
 80 81 1.0 91 1.0 142 1.0
 81 82 1.0 94 1.0 145 1.0
 82 83 1.0
 83 84 1.0
 84 85 1.0 95 1.0 146 1.0
 85 86 1.0 98 1.0 149 1.0
 86 87 1.0
 87 88 1.0
 88 99 1.0 150 1.0
 89 90 1.0
 90 91 1.0
 91 92 1.0
 92 93 1.0
 93 94 1.0
 94 95 1.0
 95 96 1.0
 96 97 1.0
 97 98 1.0
 98 99 1.0
 99 100 1.0
 100
 101 102 1.0 113 1.0 115 1.0 166 1.0
 102
 103 104 1.0
 104 105 1.0 116 1.0 167 1.0
 105 106 1.0 119 1.0 170 1.0
 106 107 1.0
 107 108 1.0
 108 109 1.0 120 1.0 171 1.0
 109 110 1.0 123 1.0 174 1.0
 110
 111
 112 124 1.0 126 1.0 175 1.0
 113 114 1.0 165 1.0
 114 115 1.0 128 1.0 178 1.0
 115 116 1.0
 116 117 1.0
 117 118 1.0 129 1.0 179 1.0
 118 119 1.0 132 1.0 182 1.0
 119 120 1.0
 120 121 1.0
 121 122 1.0 133 1.0 183 1.0
 122 123 1.0 136 1.0 186 1.0
 123 124 1.0
 124 125 1.0
 125 126 1.0 187 1.0
 126 176 1.0
 127 128 1.0 141 1.0 190 1.0
 128
 129 130 1.0
 130 131 1.0 142 1.0 191 1.0
 131 132 1.0 145 1.0 194 1.0
 132 133 1.0
 133 134 1.0
 134 135 1.0 146 1.0 195 1.0
 135 136 1.0 149 1.0 198 1.0
 136
 137
 138 150 1.0 152 1.0 199 1.0
 139 189 1.0
 140 141 1.0
 141 142 1.0
 142 143 1.0
 143 144 1.0
 144 145 1.0
 145 146 1.0
 146 147 1.0
 147 148 1.0
 148 149 1.0
 149 150 1.0
 150 151 1.0
 151 152 1.0
 152 200 1.0
 153 154 1.0 166 1.0
 154 155 1.0
 155 156 1.0
 156 157 1.0 167 1.0
 157 158 1.0 170 1.0
 158 159 1.0
 159 160 1.0
 160 161 1.0 171 1.0
 161 162 1.0 174 1.0
 162 163 1.0
 163 164 1.0
 164 175 1.0
 165 166 1.0 178 1.0
 166 167 1.0
 167 168 1.0
 168 169 1.0 179 1.0
 169 170 1.0 182 1.0
 170 171 1.0
 171 172 1.0
 172 173 1.0 183 1.0
 173 174 1.0 186 1.0
 174 175 1.0
 175 176 1.0
 176 187 1.0
 177 178 1.0 190 1.0
 178 179 1.0
 179 180 1.0
 180 181 1.0 191 1.0
 181 182 1.0 194 1.0
 182 183 1.0
 183 184 1.0
 184 185 1.0 195 1.0
 185 186 1.0 198 1.0
 186 187 1.0
 187 188 1.0
 188 199 1.0
 189 190 1.0
 190 191 1.0
 191 192 1.0
 192 193 1.0
 193 194 1.0
 194 195 1.0
 195 196 1.0
 196 197 1.0
 197 198 1.0
 198 199 1.0
 199 200 1.0
 200
 201 203 1.0
 202
 203 204 1.0 205 1.0 206 1.0
 204
 205
 206
 207 208 1.0
 208 209 1.0 210 1.0 211 1.0
 209
 210
 211
 212 213 1.0
 213 214 1.0 215 1.0 216 1.0
 214
 215
 216
 217 218 1.0
 218 219 1.0 220 1.0 221 1.0
 219
 220
 221
 222
 223
 224

