       3
 i =        1, E =       -17.2193756527
  O        -0.0000010664       -0.0000002199        0.1057277329
  H         0.0000002289        0.7732423906       -0.4844615347
  H         0.0000008365       -0.7732421707       -0.4844618867
       3
 i =        2, E =       -17.2194181645
  O        -0.0000010859       -0.0000001519        0.1099588631
  H         0.0000005224        0.7664472055       -0.4866402538
  H         0.0000006098       -0.7664470471       -0.4866406402
       3
 i =        3, E =       -17.2194206771
  O        -0.0000010453       -0.0000001005        0.1096560850
  H         0.0000009810        0.7650703022       -0.4865630648
  H         0.0000001697       -0.7650701897       -0.4865634573
       3
 i =        4, E =       -17.2194206764
  O        -0.0000010453       -0.0000001005        0.1096560850
  H         0.0000009810        0.7650703022       -0.4865630648
  H         0.0000001697       -0.7650701897       -0.4865634573
