     212
 i =       18, E =     -8504.7039473591
  N         0.0032831678        2.0469985379        2.4543429917
 Ga        -0.0056154076        0.0958455493        2.8024206002
  N        -0.0063859741        0.0493812296        4.9658670475
 Ga         0.0031077705        1.8849523376        5.7427626592
  N        -0.0014116910        1.8909086955        7.7432141118
 Ga        -0.0014129804        0.0473662081        8.3957299441
  N        -0.0026849504        0.0454392714       10.3681113774
 Ga        -0.0028931125        1.8848188899       11.0263133632
  N        -0.0037263409        1.8652073628       13.0166743582
 Ga        -0.0029701892        0.0458118301       13.8297064080
  N        -0.0021249894        0.0444850711       16.0220107260
 Ga        -0.0039911069        2.0857419321       16.4383090725
 Ga        -0.0111613694        3.7152311766        1.2532743571
  N        -1.4722926945        4.6248269505        2.4382157441
 Ga        -1.6696696430        2.7911256496        3.2172158297
  N        -1.6124267124        2.8324273008        5.1982322726
 Ga        -1.6313794017        4.6971052189        5.7542767639
  N        -1.6193012220        4.6959649164        7.7473188598
 Ga        -1.5978575169        2.8359772008        8.3907811752
  N        -1.5993354499        2.8379002150       10.3817423939
 Ga        -1.6276699625        4.6955083756       11.0295914108
  N        -1.6445207683        4.7060486120       13.0183142298
 Ga        -1.6004873343        2.8371991910       13.5777106871
  N        -1.6264512954        2.8227214000       15.5365066721
 Ga        -1.4488631227        4.5929332403       16.4384552283
  N         0.0017409772        3.7551887611       17.5813283721
  N        -3.2325498662        7.5836004531        2.4548642995
 Ga        -3.1861292862        5.5812950980        2.8048801132
  N        -3.2152354623        5.6107838030        4.9667036695
 Ga        -3.2376364730        7.4334679351        5.7490570426
  N        -3.2235821693        7.4625861402        7.7397272554
 Ga        -3.2186775379        5.6153483602        8.4004458894
  N        -3.2192386113        5.6167094919       10.3704393230
 Ga        -3.2209627731        7.4541471546       11.0312342984
  N        -3.2203597737        7.4353438904       13.0191761114
 Ga        -3.2195760833        5.6156705600       13.8346153802
  N        -3.2197984899        5.6159370324       16.0216626361
 Ga        -3.2203085886        7.6644922819       16.4413836946
 Ga        -3.2523077669        9.3475306794        1.3984160847
  N        -4.7426928219       10.1845711452        2.4654035936
 Ga        -4.9737369191        8.3171336135        3.1902309120
  N        -4.8434131671        8.3884739213        5.1628497415
 Ga        -4.8619429508       10.2644506574        5.7380279079
  N        -4.8392167776       10.2574855034        7.7358245883
 Ga        -4.8198907706        8.4074268387        8.3966931157
  N        -4.8157438166        8.4076292349       10.3832938408
 Ga        -4.8431144004       10.2674263976       11.0270921864
  N        -4.8601192934       10.2767072271       13.0162010480
 Ga        -4.8179781589        8.4079789374       13.5786995398
  N        -4.8482447987        8.3921066445       15.5346534521
 Ga        -4.6567087053       10.1592998723       16.4427287577
  N        -3.2147899940        9.3268103421       17.5702044526
  N         3.2051059929        1.9008115474        2.5593235418
 Ga         3.1932370418        0.1584482439        3.2343570011
  N         3.2086087998        0.0395038358        5.1962674040
 Ga         3.2005821054        1.9066025514        5.8229870092
  N         3.2107995797        1.9000484545        7.7973212472
 Ga         3.2074052585        0.0336910384        8.3887735979
  N         3.2114828281        0.0310631667       10.3790222913
 Ga         3.2121458434        1.9008750400       10.9816937876
  N         3.2116738257        1.9017948161       12.9482213889
 Ga         3.2116299742        0.0338644728       13.5782971828
  N         3.2101805501        0.0677912711       15.5342892081
 Ga         3.2106054958        1.9034607580       15.8191329642
  N         1.4902493383        4.6322727539        2.3739467914
 Ga         1.6840462034        2.8074532410        3.2027283505
  N         1.6080848477        2.8405793938        5.1847161961
 Ga         1.6554344412        4.7068716135        5.7594610683
  N         1.6096050165        4.6920541170        7.7603865982
 Ga         1.5940110319        2.8356268859        8.3942810708
  N         1.5936033632        2.8361566924       10.3847652885
 Ga         1.6210498138        4.6951053943       11.0285268948
  N         1.6366710138        4.7058268762       13.0186057623
 Ga         1.5936465367        2.8366418579       13.5772692749
  N         1.6179594047        2.8222956870       15.5371393393
 Ga         1.4447208449        4.5951168260       16.4383112673
  N        -0.0096377478        7.4668598329        2.6465597758
 Ga         0.0240356282        5.5979328440        3.2559774235
  N         0.0046425763        5.6274062916        5.1943806101
 Ga        -0.0060145023        7.4589066319        5.8617994684
  N        -0.0060332761        7.4713156502        7.8156921473
 Ga        -0.0024202023        5.5983025833        8.4057537118
  N        -0.0044315419        5.6032060942       10.3910663417
 Ga        -0.0045322902        7.4725064772       10.9874545713
  N        -0.0037435323        7.4728099790       12.9534336710
 Ga        -0.0039126749        5.6022347727       13.5781664500
  N        -0.0046430064        5.6322122693       15.5370243341
 Ga        -0.0024576573        7.4715865967       15.8156509869
  N        -1.7200835003       10.1845133363        2.4726454053
 Ga        -1.6104289263        8.3770392406        3.2813593246
  N        -1.6056626712        8.3890370563        5.2059808422
 Ga        -1.5920533267       10.2761508749        5.7632246627
  N        -1.6030952368       10.2599125250        7.7489819497
 Ga        -1.6274091861        8.4057654124        8.4008316136
  N        -1.6246359466        8.4069011541       10.3860926272
 Ga        -1.5989554437       10.2672606989       11.0296031556
  N        -1.5802255536       10.2769305958       13.0181895376
 Ga        -1.6234847332        8.4081267775       13.5794591169
  N        -1.5918462181        8.3896318588       15.5360385820
 Ga        -1.7780541910       10.1625236675       16.4409268394
  N         6.4338264416        2.0146286905        2.5044750207
 Ga         6.4231661946        0.0501573720        2.8430056567
  N         6.4256239885        0.0414391371        4.9811147233
 Ga         6.4253258667        1.8775931386        5.7640123015
  N         6.4290763513        1.8887208252        7.7544096205
 Ga         6.4266103038        0.0456774542        8.4071720503
  N         6.4273536921        0.0444629644       10.3747066392
 Ga         6.4284101073        1.8850841601       11.0297318789
  N         6.4287349440        1.8651061101       13.0187153777
 Ga         6.4283853655        0.0459742679       13.8335405929
  N         6.4281407603        0.0453404029       16.0208463250
 Ga         6.4281009317        2.0935326134       16.4397497101
 Ga         6.4525870267        3.7236307651        1.4738681109
  N         4.9395861753        4.5957237129        2.4750143082
 Ga         4.7062103788        2.7695817107        3.2578989537
  N         4.8191154571        2.8281221648        5.2124943670
 Ga         4.7773535352        4.7087044796        5.7609835698
  N         4.8167636694        4.6898823678        7.7616580936
 Ga         4.8283755862        2.8344674604        8.3964690621
  N         4.8316358913        2.8351575494       10.3858982899
 Ga         4.8053463621        4.6954661744       11.0275797027
  N         4.7885910153        4.7060358062       13.0174934890
 Ga         4.8301870095        2.8367641218       13.5772104532
  N         4.8000390679        2.8212413982       15.5336888794
 Ga         4.9914932108        4.5885761037       16.4417458660
  N         6.4336777226        3.7557090916       17.5687705376
  N         3.1929749442        7.6226951261        2.4884943712
  N         3.2169634547        5.6199515703        5.0247484793
 Ga         3.2173885853        7.4165086907        5.7706217974
  N         3.2112274907        7.4693283546        7.7645630470
 Ga         3.2132522984        5.6146121477        8.4013874015
  N         3.2128445762        5.6164237962       10.3745319678
 Ga         3.2134264046        7.4545016935       11.0298754738
  N         3.2127103241        7.4362562411       13.0192167612
 Ga         3.2132888591        5.6155310030       13.8299852715
  N         3.2137923551        5.6147290121       16.0224298679
 Ga         3.2120000937        7.6564007474       16.4385896476
 Ga         3.2270789371        9.3626705541        1.4344582655
  N         1.7002038786       10.1937991749        2.4854075371
 Ga         1.5751282798        8.3842125373        3.3042670370
  N         1.5894211498        8.3956384501        5.2229288310
 Ga         1.5780926612       10.2785341427        5.7734691232
  N         1.5937087604       10.2629720425        7.7572826741
 Ga         1.6154890648        8.4078067612        8.4077206779
  N         1.6142656879        8.4086514764       10.3918528833
 Ga         1.5890131244       10.2682926291       11.0318534280
  N         1.5722407630       10.2773412694       13.0195469621
 Ga         1.6156658223        8.4083101394       13.5786870750
  N         1.5893479177        8.3932691070       15.5372442030
 Ga         1.7671586709       10.1637525223       16.4381076205
  N         3.2177064052        9.3264112874       17.5804420611
  N         9.6601247460        1.9097494583        2.5696117982
 Ga         9.6531776728        0.1725459667        3.2502860065
  N         9.6413482571        0.0437141319        5.2086782275
 Ga         9.6558628618        1.9065962043        5.8341845473
  N         9.6463317842        1.9018871508        7.8046273476
 Ga         9.6470377597        0.0356514292        8.3983008353
  N         9.6447344367        0.0321306952       10.3857047606
 Ga         9.6464487947        1.9030156865       10.9819768099
  N         9.6458280690        1.9021055557       12.9496651012
 Ga         9.6449760081        0.0332334916       13.5780036947
  N         9.6439918014        0.0621373311       15.5367199046
 Ga         9.6461595879        1.9014338549       15.8159792376
  N         7.9335735156        4.6225542989        2.4903598848
 Ga         8.1540566903        2.7690236876        3.2621395175
  N         8.0391605221        2.8268842990        5.2162001454
 Ga         8.0629324640        4.7008181930        5.7574057114
  N         8.0475308538        4.6935700725        7.7493094782
 Ga         8.0282359140        2.8358238402        8.3960113715
  N         8.0259359291        2.8370868416       10.3850940588
 Ga         8.0529659010        4.6961621389       11.0298877747
  N         8.0697266233        4.7065502214       13.0187750170
 Ga         8.0262147259        2.8370990452       13.5779698511
  N         8.0568809080        2.8189763309       15.5350794676
 Ga         7.8706316405        4.5918389201       16.4404621454
  N         6.3600111618        7.4347406517        2.4599261652
 Ga         6.4167631703        5.7122097305        3.2585252980
  N         6.4286704846        5.6187750359        5.2053525089
 Ga         6.4255215215        7.4699322525        5.8419410513
  N         6.4276700770        7.4716710337        7.8059071012
 Ga         6.4291317288        5.6011017993        8.4012162709
  N         6.4305092268        5.6032292872       10.3882221937
 Ga         6.4294240091        7.4728326154       10.9845916625
  N         6.4283384473        7.4735078587       12.9500536436
 Ga         6.4284412626        5.6038413761       13.5778601592
  N         6.4266206519        5.6382439948       15.5342882647
 Ga         6.4267284366        7.4737984017       15.8191815358
  N         4.7183361150       10.2000911518        2.4836744209
 Ga         4.9044089575        8.3480412332        3.2628013076
  N         4.8209034145        8.4010518665        5.2087831976
 Ga         4.8491946855       10.2768820771        5.7584974532
  N         4.8305064209       10.2640807594        7.7497226431
 Ga         4.8102190590        8.4096928592        8.4015663790
  N         4.8104922273        8.4088109079       10.3881425668
 Ga         4.8372500265       10.2680804163       11.0284761574
  N         4.8530866448       10.2772050039       13.0177886693
 Ga         4.8098370227        8.4081846852       13.5782612275
  N         4.8342663853        8.3932241703       15.5378301312
 Ga         4.6607878283       10.1659977646       16.4385812066
  O         0.0956467632        3.6890911633       -0.5658513623
  H        -0.0012221156        7.4752640761        1.6202972544
  C         0.1781446001        2.3917625752       -1.1749901742
  H         0.9981022678        1.7813801352       -0.7604705804
  H        -0.7594342522        1.8221940268       -1.0679499369
  H         0.3692606639        2.5426400530       -2.2479138437
 Ga         3.2115374066        5.6102548800        2.4360619477
  O         3.7523957130        6.0857067418        0.2327600133
  H         3.5632645259        5.3866605051       -0.4158452286
  C         5.1191871093        6.5940780391        0.0298178280
  H         5.0857872867        7.3939081052       -0.7237531484
  H         5.5830074470        6.9805799146        1.0135517498
  H         5.7668241208        5.7880831580       -0.3538483638
