#p

 i =       89, E =     -8480.6276854089

0 1
  N        -0.0046484887        2.0425862682        2.5079214414
 Ga        -0.0222763550        0.0867933600        2.8317122267
  N        -0.0015756297        0.0478010141        5.0218376956
 Ga        -0.0024639556        1.8773770813        5.7942920608
  N        -0.0025839692        1.8916166385        7.7991008068
 Ga        -0.0046551134        0.0468538311        8.4431124203
  N        -0.0029227624        0.0445569886       10.4196249596
 Ga        -0.0030892669        1.8846653114       11.0686647814
  N        -0.0026581061        1.8644728805       13.0645269312
 Ga        -0.0019760517        0.0439263169       13.8667498075
  N        -0.0008685708        0.0420985078       16.0708930427
 Ga        -0.0025336715        2.0795772343       16.4811882895
 Ga        -0.0284097699        3.7317798187        1.3222595511
  N        -1.4855685664        4.6276674037        2.5017424383
 Ga        -1.6776171139        2.7837275637        3.2695033114
  N        -1.6124870305        2.8340599918        5.2532914827
 Ga        -1.6398903621        4.6968860962        5.8053351382
  N        -1.6203053009        4.6957983579        7.8016831885
 Ga        -1.6015005736        2.8341776132        8.4339214989
  N        -1.5999361192        2.8369911231       10.4309189758
 Ga        -1.6262955141        4.6941011345       11.0717104835
  N        -1.6426349662        4.7045217090       13.0656821021
 Ga        -1.5998337053        2.8357305779       13.6212906339
  N        -1.6263074717        2.8205759596       15.5843849541
 Ga        -1.4480839485        4.5908301146       16.4822942253
  N         0.0049506592        3.7514556353       17.6168261268
  N        -3.2106928974        7.5965432226        2.5193942102
 Ga        -3.1921007547        5.5882675177        2.8453532245
  N        -3.2180291812        5.6179006293        5.0189079623
 Ga        -3.2255036513        7.4367371066        5.8079969555
  N        -3.2171686069        7.4626212246        7.7994256842
 Ga        -3.2187366364        5.6152471211        8.4499101993
  N        -3.2188783226        5.6163126145       10.4226960549
 Ga        -3.2202841618        7.4549263808       11.0739638599
  N        -3.2189231967        7.4351266372       13.0671161618
 Ga        -3.2185861469        5.6142101082       13.8692370915
  N        -3.2175847870        5.6128595407       16.0709211191
 Ga        -3.2190439817        7.6534064168       16.4832684686
 Ga        -3.2481596466        9.3491292155        1.4925444502
  N        -4.7263100618       10.2013116894        2.5253446156
 Ga        -4.9373083801        8.3475576639        3.2896428220
  N        -4.8243956970        8.4022987530        5.2513863411
 Ga        -4.8588725838       10.2772993263        5.8014124304
  N        -4.8362287239       10.2632799395        7.7991327184
 Ga        -4.8192610067        8.4079662174        8.4380666253
  N        -4.8153115844        8.4067123557       10.4317974651
 Ga        -4.8423351530       10.2661725706       11.0696770469
  N        -4.8583106984       10.2748364678       13.0641807115
 Ga        -4.8166428205        8.4066456973       13.6222349236
  N        -4.8442951919        8.3908074985       15.5841393437
 Ga        -4.6615859003       10.1600646106       16.4840478269
  N        -3.2116165410        9.3227830638       17.6161139939
  N         3.2011742393        1.9101591921        2.6194819602
 Ga         3.2020900179        0.1723929609        3.2926695163
  N         3.2141657076        0.0436166001        5.2543991978
 Ga         3.2040330659        1.9075106669        5.8740122852
  N         3.2132980804        1.9015114018        7.8512763522
 Ga         3.2112116076        0.0357219446        8.4398761384
  N         3.2137198364        0.0319643386       10.4332976484
 Ga         3.2133914599        1.9018236258       11.0273349926
  N         3.2134175506        1.9008334695       12.9997963919
 Ga         3.2128526600        0.0315950135       13.6222929815
  N         3.2117542661        0.0623366271       15.5843949642
 Ga         3.2134290165        1.9004349471       15.8645952323
  N         1.4813823736        4.6259568411        2.5030860957
 Ga         1.6662792949        2.7935729294        3.2623654174
  N         1.6063298188        2.8329405283        5.2506610563
 Ga         1.6364990291        4.6968440957        5.8054659776
  N         1.6136852799        4.6946708595        7.8031334677
 Ga         1.5943888508        2.8350579198        8.4373948855
  N         1.5948314278        2.8364891110       10.4332876227
 Ga         1.6209189963        4.6944962408       11.0719272446
  N         1.6373680014        4.7045134460       13.0664615948
 Ga         1.5942280202        2.8354818629       13.6218531805
  N         1.6209429075        2.8192252537       15.5858990623
 Ga         1.4491276759        4.5942414769       16.4815652182
  N         0.0035306452        7.4637877641        2.6980461992
 Ga         0.0042852746        5.6013206876        3.3233721965
  N        -0.0033187625        5.6326173607        5.2629968569
 Ga         0.0033853627        7.4689525541        5.9075926826
  N        -0.0024707669        7.4741122579        7.8659174150
 Ga        -0.0025991053        5.6008543579        8.4471404015
  N        -0.0029060964        5.6027553524       10.4376699988
 Ga        -0.0018023744        7.4718248305       11.0310706891
  N        -0.0022513501        7.4713872583       13.0023230731
 Ga        -0.0029905616        5.6011442028       13.6227383099
  N        -0.0037841828        5.6310384434       15.5855698334
 Ga        -0.0018452539        7.4701755988       15.8645265451
  N        -1.7148152329       10.1906252698        2.5225981554
 Ga        -1.5811227544        8.3826074912        3.3355686183
  N        -1.5977720951        8.3950133061        5.2605229271
 Ga        -1.5853963065       10.2819055841        5.8124414435
  N        -1.6015098399       10.2613863880        7.8025961312
 Ga        -1.6226935358        8.4079381849        8.4497127623
  N        -1.6219747310        8.4068788662       10.4384181554
 Ga        -1.5964545446       10.2672105585       11.0735248579
  N        -1.5788638859       10.2752692540       13.0669122564
 Ga        -1.6219181352        8.4065702645       13.6237083038
  N        -1.5933074696        8.3887706624       15.5864898511
 Ga        -1.7696763686       10.1638462166       16.4831807338
  N         6.4267762251        2.0285857019        2.5396172582
 Ga         6.4431640209        0.0506760577        2.8671068448
  N         6.4254194950        0.0471479265        5.0275277923
 Ga         6.4276562317        1.8780071956        5.8063976803
  N         6.4287932729        1.8909646984        7.8025622161
 Ga         6.4306458977        0.0460335089        8.4492348417
  N         6.4293874689        0.0443674310       10.4222373462
 Ga         6.4301174505        1.8855230363       11.0701751436
  N         6.4297080122        1.8643857977       13.0650462394
 Ga         6.4300944319        0.0444881885       13.8692471236
  N         6.4308603389        0.0424511407       16.0711081273
 Ga         6.4297646834        2.0819576240       16.4814323757
 Ga         6.4297687736        3.7584963873        1.5325949677
  N         4.9265483952        4.6265768362        2.5311680617
 Ga         4.7078785711        2.7764673347        3.2989889617
  N         4.8183670056        2.8312710665        5.2600201820
 Ga         4.7931523506        4.7043393927        5.8041642516
  N         4.8115846165        4.6938077914        7.8019490034
 Ga         4.8295813994        2.8362464694        8.4394861054
  N         4.8324075820        2.8365404325       10.4335808916
 Ga         4.8072948148        4.6958949394       11.0697696898
  N         4.7901920374        4.7045965007       13.0643702306
 Ga         4.8322688611        2.8359479968       13.6213152452
  N         4.8046798698        2.8205013470       15.5836107551
 Ga         4.9865310498        4.5899455466       16.4826175106
  N         6.4373981698        3.7521319666       17.6148760151
  N         3.2074429160        7.5894106129        2.5069712657
 Ga         3.1806768702        5.6056905114        2.8391661346
  N         3.2121195161        5.6154838170        5.0271654878
 Ga         3.2196062213        7.4389622346        5.8005014678
  N         3.2115054709        7.4635116377        7.7975659308
 Ga         3.2128830327        5.6169258239        8.4479162884
  N         3.2132256195        5.6163550091       10.4221015860
 Ga         3.2152769581        7.4553391571       11.0724034034
  N         3.2138320609        7.4352388355       13.0664670250
 Ga         3.2145548797        5.6141121168       13.8680296002
  N         3.2153174276        5.6125410342       16.0714337427
 Ga         3.2140474191        7.6503323738       16.4813445862
 Ga         3.2459412888        9.3515842994        1.3436979122
  N         1.7009448776       10.1951665987        2.5126437311
 Ga         1.6071920483        8.3971333919        3.3101471762
  N         1.5923034969        8.3951386518        5.2493809169
 Ga         1.5819796227       10.2789872064        5.8028235678
  N         1.5945731224       10.2614744286        7.7981547772
 Ga         1.6188043495        8.4091122193        8.4474814895
  N         1.6169728608        8.4074593047       10.4372530255
 Ga         1.5917792900       10.2675600785       11.0719265500
  N         1.5736968138       10.2753711242       13.0656100679
 Ga         1.6167370133        8.4070107322       13.6228156468
  N         1.5899750844        8.3911795287       15.5854801379
 Ga         1.7681399909       10.1618965610       16.4820213039
  N         3.2218102356        9.3228703159       17.6164404052
  N         9.6547823636        1.9040870827        2.6306644698
 Ga         9.6508488667        0.1439785301        3.2639981279
  N         9.6423832931        0.0429771557        5.2440049954
 Ga         9.6523549803        1.9000541004        5.8660015419
  N         9.6450674037        1.9012823419        7.8469929737
 Ga         9.6474237891        0.0350973297        8.4339134835
  N         9.6454290997        0.0319209015       10.4302497137
 Ga         9.6466276789        1.9013817532       11.0251856241
  N         9.6461216862        1.9005931033       12.9987388796
 Ga         9.6458187575        0.0314149926       13.6215210175
  N         9.6448782408        0.0606125784       15.5847031983
 Ga         9.6462549961        1.8997250261       15.8640040785
  N         7.9297765412        4.6272278826        2.5366442610
 Ga         8.1485647130        2.7695610266        3.3002436587
  N         8.0368563753        2.8311617838        5.2609402611
 Ga         8.0615401792        4.7030879914        5.8015398372
  N         8.0481372594        4.6948611017        7.7991676481
 Ga         8.0301744155        2.8357294842        8.4361528394
  N         8.0272165307        2.8366837062       10.4319025548
 Ga         8.0518329715        4.6951650162       11.0706159615
  N         8.0694330230        4.7046570278       13.0653084053
 Ga         8.0269071980        2.8357328844       13.6213045286
  N         8.0548461654        2.8185491362       15.5848132141
 Ga         7.8798925932        4.5938268801       16.4817768227
  N         6.4243362528        7.4761158869        2.6117761662
 Ga         6.4229823284        5.7388784674        3.2961683030
  N         6.4282397578        5.6192366336        5.2570676548
 Ga         6.4230275042        7.4780225599        5.8706605493
  N         6.4292453755        7.4740500087        7.8470844156
 Ga         6.4295728502        5.6061407237        8.4374786487
  N         6.4300286372        5.6033643007       10.4319182601
 Ga         6.4297340917        7.4724464003       11.0263902382
  N         6.4296228074        7.4716497697       12.9988448315
 Ga         6.4294537163        5.6021937667       13.6214280194
  N         6.4281405503        5.6325209507       15.5837802649
 Ga         6.4292837175        7.4705506209       15.8656099180
  N         4.7187421502       10.2004802593        2.5141094521
 Ga         4.9006319217        8.3574793199        3.2603317372
  N         4.8184806414        8.4015787215        5.2403891232
 Ga         4.8470051273       10.2742734420        5.7903350250
  N         4.8307025471       10.2631741616        7.7941195694
 Ga         4.8120767165        8.4091743755        8.4356391519
  N         4.8107529866        8.4068420592       10.4311403205
 Ga         4.8360357060       10.2661106193       11.0689445849
  N         4.8532191069       10.2749672359       13.0644602124
 Ga         4.8110475100        8.4066757653       13.6219767661
  N         4.8373584176        8.3899747836       15.5858994776
 Ga         4.6662315729       10.1654702326       16.4812139893
  O        -0.0217743398        3.7451307849       -0.4917337690
  H        -0.0014618711        7.4539865865        1.6715388812
  C         0.6115228832        2.6204440178       -1.1236067439
  H         1.6792244602        2.5377075335       -0.8617389369
  H         0.1191610510        1.6681249494       -0.8663517306
  H         0.5313801845        2.7681809699       -2.2104283235

