       2
 i =        1, E =        -1.1619019613
  H         3.2059176019        5.5818871772       19.8819841967
  H         3.9214846473        5.5814902906       19.8810256650
       2
 i =        2, E =        -1.1619262458
  H         3.2030209055        5.5818887824       19.8819894930
  H         3.9243813893        5.5814887408       19.8810231677
       2
 i =        3, E =        -1.1619264543
  H         3.2032629896        5.5818886448       19.8819907472
  H         3.9241393479        5.5814889362       19.8810250357
       2
 i =        4, E =        -1.1619264543
  H         3.2032629896        5.5818886448       19.8819907472
  H         3.9241393479        5.5814889362       19.8810250357
