       6
 i =        1, E =       -24.0805895406
  O        -0.2872794483        3.9601760234       -0.8064161656
  H        -0.2094402001        4.7148076238       -1.4173495785
  C        -0.0129397954        2.7756999646       -1.5906398924
  H         0.8709741790        2.8844419225       -2.2365986724
  H         0.1982049851        1.9655064086       -0.8810790405
  H        -0.8688548723        2.4682812895       -2.2090651449
       6
 i =        2, E =       -24.0807782504
  O        -0.2778262049        3.9573081572       -0.8177208523
  H        -0.2166123282        4.7199434477       -1.4114304623
  C        -0.0111717555        2.7695640125       -1.5898564020
  H         0.8702054904        2.8876497568       -2.2365102480
  H         0.1954592733        1.9634089586       -0.8739770604
  H        -0.8693661568        2.4711146354       -2.2116536473
       6
 i =        3, E =       -24.0808207535
  O        -0.2738263983        3.9538412816       -0.8183982938
  H        -0.2233702619        4.7186349548       -1.4111495950
  C        -0.0079668596        2.7702959670       -1.5912489768
  H         0.8737510194        2.8846592721       -2.2379325100
  H         0.1926229173        1.9655873261       -0.8718207252
  H        -0.8703320227        2.4758861139       -2.2105849878
       6
 i =        4, E =       -24.0808715382
  O        -0.2617138022        3.9514860113       -0.8172465336
  H        -0.2394832767        4.7177843957       -1.4123755311
  C        -0.0049962987        2.7722319822       -1.5907201943
  H         0.8784150621        2.8765511361       -2.2380987126
  H         0.1889102857        1.9663009626       -0.8710734761
  H        -0.8697759706        2.4842678320       -2.2114873315
       6
 i =        5, E =       -24.0809179146
  O        -0.2452027684        3.9516703323       -0.8142873748
  H        -0.2610713605        4.7161432039       -1.4153525003
  C        -0.0015190630        2.7742524033       -1.5897867849
  H         0.8844411596        2.8668212627       -2.2371857217
  H         0.1832258927        1.9645551709       -0.8721325302
  H        -0.8684895039        2.4947625829       -2.2120331720
       6
 i =        6, E =       -24.0809678290
  O        -0.2215122340        3.9547355164       -0.8102310831
  H        -0.2903831218        4.7127708514       -1.4196995516
  C         0.0031464890        2.7758142411       -1.5887380139
  H         0.8924980793        2.8543154817       -2.2350205518
  H         0.1744836388        1.9604048041       -0.8741571915
  H        -0.8664407569        2.5097396013       -2.2128093779
       6
 i =        7, E =       -24.0810145176
  O        -0.2136218931        3.9586368764       -0.8092871213
  H        -0.2999893515        4.7100382394       -1.4206046359
  C         0.0048925762        2.7754141304       -1.5883168793
  H         0.8952832410        2.8497168346       -2.2333866851
  H         0.1701573038        1.9571723840       -0.8755999040
  H        -0.8650075630        2.5162472269       -2.2132396360
       6
 i =        8, E =       -24.0810391650
  O        -0.2009324376        3.9616657528       -0.8085225431
  H        -0.3139667732        4.7063202151       -1.4213071665
  C         0.0072356774        2.7737195994       -1.5893339853
  H         0.8994282626        2.8449478916       -2.2310262544
  H         0.1636340724        1.9549518015       -0.8752064050
  H        -0.8640697604        2.5249050304       -2.2148342059
       6
 i =        9, E =       -24.0810429457
  O        -0.1949228567        3.9629862334       -0.8086786907
  H        -0.3214401985        4.7050797371       -1.4210444267
  C         0.0091415733        2.7736703305       -1.5891848776
  H         0.9014238112        2.8414104361       -2.2307564020
  H         0.1600115686        1.9539972711       -0.8749439219
  H        -0.8628708760        2.5292983243       -2.2155437779
       6
 i =       10, E =       -24.0810439285
  O        -0.1914419209        3.9633759605       -0.8089226776
  H        -0.3253349341        4.7044026239       -1.4205134103
  C         0.0097041490        2.7738810996       -1.5894194075
  H         0.9026793315        2.8392657749       -2.2302858374
  H         0.1583421923        1.9543387797       -0.8747466517
  H        -0.8624907128        2.5312372776       -2.2162171822
       6
 i =       11, E =       -24.0810440364
  O        -0.1908838867        3.9633571695       -0.8091260661
  H        -0.3260209270        4.7044171436       -1.4202295134
  C         0.0098533047        2.7740221109       -1.5894030460
  H         0.9029026093        2.8386917065       -2.2303257078
  H         0.1580461592        1.9545268326       -0.8746698739
  H        -0.8623284611        2.5315113943       -2.2163345934
       6
 i =       12, E =       -24.0810440354
  O        -0.1908838867        3.9633571695       -0.8091260661
  H        -0.3260209270        4.7044171436       -1.4202295134
  C         0.0098533047        2.7740221109       -1.5894030460
  H         0.9029026093        2.8386917065       -2.2303257078
  H         0.1580461592        1.9545268326       -0.8746698739
  H        -0.8623284611        2.5315113943       -2.2163345934
