       3
 i =        1, E =       -17.2195035526
  O         1.6904469367        4.6726939277       20.2834270207
  H         1.3510890947        5.5096336538       20.6329771443
  H         1.0528478601        4.0383501508       20.6424305359
       3
 i =        2, E =       -17.2196729305
  O         1.6824222235        4.6743553853       20.2911883547
  H         1.3578841993        5.5226515339       20.6290196696
  H         1.0540162790        4.0236544435       20.6386669117
       3
 i =        3, E =       -17.2196780639
  O         1.6843242519        4.6739481206       20.2929164497
  H         1.3571084471        5.5233376820       20.6282391187
  H         1.0530063050        4.0232851266       20.6379224458
       3
 i =        4, E =       -17.2196844116
  O         1.6885944724        4.6730144303       20.2980946864
  H         1.3552289056        5.5241680777       20.6259379378
  H         1.0508602679        4.0231283830       20.6357137223
       3
 i =        5, E =       -17.2196916027
  O         1.6957896550        4.6713882113       20.3083460940
  H         1.3518430354        5.5251317437       20.6214006685
  H         1.0471503795        4.0232775340       20.6313666958
       3
 i =        6, E =       -17.2197007959
  O         1.7005360893        4.6703016263       20.3165129171
  H         1.3493254215        5.5253874463       20.6175474484
  H         1.0445556928        4.0237947782       20.6276580866
       3
 i =        7, E =       -17.2196946795
  O         1.7332459566        4.6629773585       20.3751999235
  H         1.3325119614        5.5269668875       20.5899681429
  H         1.0273685394        4.0274346685       20.6010049974
       3
 i =        8, E =       -17.2197403480
  O         1.7141635758        4.6671948912       20.3471875772
  H         1.3419150189        5.5252660154       20.6029295432
  H         1.0372153710        4.0260218473       20.6135090660
       3
 i =        9, E =       -17.2197564162
  O         1.7214983957        4.6655651729       20.3623577936
  H         1.3382254501        5.5258996810       20.5957488879
  H         1.0333393978        4.0265323713       20.6065559943
       3
 i =       10, E =       -17.2189055291
  O         1.7737990547        4.6541955307       20.4756794778
  H         1.3119948573        5.5297952800       20.5416262463
  H         1.0061694428        4.0308559525       20.5539955375
       3
 i =       11, E =       -17.2197610038
  O         1.7233589838        4.6652041092       20.3674776376
  H         1.3373714501        5.5261078435       20.5932368222
  H         1.0324579683        4.0266151715       20.6040925821
       3
 i =       12, E =       -17.2197648553
  O         1.7250993513        4.6648631217       20.3719249268
  H         1.3365322524        5.5262586914       20.5910385252
  H         1.0316151743        4.0267509746       20.6019384256
       3
 i =       13, E =       -17.2093732821
  O         1.8231290543        4.6451995764       20.6219249268
  H         1.2879445564        5.5348578682       20.4683055342
  H         0.9824490092        4.0343820883       20.4818936711
       3
 i =       14, E =       -17.2197661571
  O         1.7256791568        4.6647865881       20.3734705910
  H         1.3362677155        5.5263184688       20.5902217994
  H         1.0313844371        4.0268180284       20.6011227383
       3
 i =       15, E =       -17.2197674294
  O         1.7262620194        4.6647090303       20.3749584455
  H         1.3360025986        5.5263860065       20.5894424890
  H         1.0311498586        4.0268784270       20.6003436423
       3
 i =       16, E =       -17.2197674294
  O         1.7262620194        4.6647090303       20.3749584455
  H         1.3360025986        5.5263860065       20.5894424890
  H         1.0311498586        4.0268784270       20.6003436423
