       6
 i =       64, E =       -34.4585517715
  O        -1.4852178381        0.2896807443       -0.7493166071
  H        -1.4590171601        1.2539453083       -0.6845432159
  H        -0.5764388750       -0.0012594612       -0.4572210920
  O         0.9266082915       -0.5631971378        0.1044357014
  H         0.9518633331       -0.4854164948        1.0684437076
  H         1.8333268423       -0.2895626820       -0.1860548545
