       6
 i =       52, E =       -34.4386065260
  O        -1.3029447994       -0.0881379207       -0.8462975333
  H        -1.4155309771        0.6967826232       -1.4004526823
  H        -0.3571753234        0.0704590167       -0.3671603736
  O         0.7457841925        0.2738718203        0.2925676126
  H         0.7040363992       -0.2163953249        1.1295453012
  H         1.6586220628        0.1079531689       -0.0551855328
