#p

 i =       10, E =     -8504.8245377662

0 1
  N         0.0917289571        2.1104525730        2.5715445974
 Ga         0.0882524069        0.1605736002        3.0175635235
  N         0.0910092832        0.1315320609        5.1135593296
 Ga         0.0638975377        1.9524160231        5.8754161057
  N         0.0729884204        1.9709327666        7.8570688301
 Ga         0.0660930378        0.1166950968        8.4923528529
  N         0.0711724108        0.1200029845       10.4616534451
 Ga         0.0691807598        1.9585008487       11.1233687797
  N         0.0718138682        1.9406875982       13.1092835697
 Ga         0.0734794096        0.1217922799       13.9257076570
  N         0.0728833611        0.1223423605       16.1124096836
 Ga         0.0726660249        2.1742048165       16.5355181757
 Ga         0.1083501633        3.8267545711        1.4352085668
  N        -1.3951199596        4.6926129818        2.5281165167
 Ga        -1.6068584049        2.8391921157        3.3128230679
  N        -1.5344938282        2.9065039902        5.2878839016
 Ga        -1.5680646727        4.7717486854        5.8522938748
  N        -1.5450199636        4.7696786913        7.8406811352
 Ga        -1.5324907054        2.9118183705        8.4900761078
  N        -1.5254490733        2.9140190577       10.4760029911
 Ga        -1.5523356586        4.7728376149       11.1213576783
  N        -1.5677522125        4.7826390901       13.1082197715
 Ga        -1.5254984631        2.9127229890       13.6700066160
  N        -1.5507407895        2.8967002312       15.6253634588
 Ga        -1.3706600297        4.6685475000       16.5355597106
  N         0.0668417005        3.8381926987       17.6811896006
  N        -3.1346140323        7.6635384118        2.5590424418
 Ga        -3.1215082870        5.6752965036        2.8820702605
  N        -3.1383269100        5.6872823460        5.0479514148
 Ga        -3.1488086605        7.5115841862        5.8393987448
  N        -3.1426712865        7.5363807485        7.8298793981
 Ga        -3.1449713425        5.6911456714        8.4903612201
  N        -3.1441020654        5.6922668671       10.4589494880
 Ga        -3.1451999333        7.5299793357       11.1204825043
  N        -3.1439379320        7.5120535749       13.1072762126
 Ga        -3.1439304312        5.6924815942       13.9263755207
  N        -3.1437198636        5.6922442455       16.1115611638
 Ga        -3.1438620004        7.7406601867       16.5371835658
 Ga        -3.1774427484        9.3971670110        1.4246390202
  N        -4.6405855187       10.2918812655        2.5866152862
 Ga        -4.8558645849        8.4327504924        3.3061123351
  N        -4.7492648115        8.4797751647        5.2776074395
 Ga        -4.7792729380       10.3407008287        5.8709636881
  N        -4.7565866050       10.3379726566        7.8517364052
 Ga        -4.7467164301        8.4763037827        8.4796711957
  N        -4.7409765654        8.4810183389       10.4680104635
 Ga        -4.7707236154       10.3388928703       11.1221998330
  N        -4.7846480704       10.3513639441       13.1082523330
 Ga        -4.7416467250        8.4828491352       13.6710674939
  N        -4.7685231468        8.4696201477       15.6259515723
 Ga        -4.5818060607       10.2367358436       16.5370060112
  N        -3.1440899271        9.4003309242       17.6828227468
  N         3.2778973863        1.9720710516        2.6597262409
 Ga         3.2898267898        0.1373865044        3.3909960381
  N         3.2898095960        0.1359303260        5.3158546627
 Ga         3.2867818789        1.9748593010        5.9816201509
  N         3.2899080953        1.9763844767        7.9278020898
 Ga         3.2873148993        0.1033337536        8.5122670822
  N         3.2884198568        0.1073733959       10.4899506755
 Ga         3.2892163941        1.9784662603       11.0870040378
  N         3.2887920891        1.9783734785       13.0490678829
 Ga         3.2885453839        0.1064789429       13.6718206410
  N         3.2885463789        0.1403895120       15.6259918715
 Ga         3.2890116172        1.9789064943       15.9007907772
  N         1.5650805688        4.6936232624        2.6177488291
 Ga         1.6890254932        2.8862668870        3.3902208929
  N         1.7001953217        2.8949948033        5.3218326345
 Ga         1.7043936042        4.7770442259        5.8811112480
  N         1.6875036219        4.7669332513        7.8562340728
 Ga         1.6662320366        2.9129268269        8.5111649888
  N         1.6695007076        2.9134943368       10.4893674287
 Ga         1.6963967796        4.7761545876       11.1230438488
  N         1.7131901440        4.7835770351       13.1087509305
 Ga         1.6678459208        2.9143280090       13.6716972019
  N         1.6965549314        2.8981350934       15.6259482748
 Ga         1.5112605502        4.6657028590       16.5362145540
  N         0.0788982565        7.5488140634        2.7022362934
 Ga         0.0754354126        5.7114377425        3.3814187616
  N         0.0713344996        5.7067334034        5.3107080960
 Ga         0.0983474574        7.5627102291        5.9223154111
  N         0.0776339881        7.5533332764        7.8863248409
 Ga         0.0685083609        5.6847729648        8.4908580965
  N         0.0714833510        5.6804224813       10.4749448937
 Ga         0.0737184914        7.5492761754       11.0765088941
  N         0.0729265801        7.5491278201       13.0399206541
 Ga         0.0726804032        5.6798167688       13.6713500334
  N         0.0742759343        5.7110037194       15.6264202954
 Ga         0.0698085487        7.5479479780       15.9077871445
  N        -1.6489719963       10.2828937518        2.5705044627
 Ga        -1.5100327548        8.4728825224        3.3564318329
  N        -1.5227064359        8.4746694573        5.2896357581
 Ga        -1.5042260090       10.3515342248        5.8792745036
  N        -1.5318571237       10.3357409533        7.8565154453
 Ga        -1.5455153327        8.4770250271        8.4910968123
  N        -1.5468569810        8.4811043034       10.4748488845
 Ga        -1.5168969053       10.3405654368       11.1236984706
  N        -1.5021898463       10.3519978720       13.1092087666
 Ga        -1.5464072934        8.4832657729       13.6715231117
  N        -1.5189365959        8.4695978020       15.6264051264
 Ga        -1.7058612438       10.2367149173       16.5373131355
  N         6.4822544462        2.1095895285        2.5619059205
 Ga         6.5218926459        0.1127391100        2.9573783806
  N         6.4805132962        0.1344600723        5.1127366093
 Ga         6.5150170857        1.9484125724        5.8694717249
  N         6.5051916508        1.9727471079        7.8526051384
 Ga         6.5115523069        0.1178450085        8.4911877314
  N         6.5059917545        0.1205469431       10.4606885749
 Ga         6.5086525600        1.9591993015       11.1229210065
  N         6.5057702016        1.9406310897       13.1088067065
 Ga         6.5040285016        0.1223393500       13.9268937155
  N         6.5041486061        0.1224809635       16.1128181784
 Ga         6.5044837103        2.1746491880       16.5355260221
 Ga         6.4783242965        3.8592929943        1.5669500384
  N         5.0102692228        4.6994542667        2.6414082156
 Ga         4.8579426954        2.8695719361        3.3916476550
  N         4.8784637083        2.8935926310        5.3140568339
 Ga         4.8820565969        4.7802689148        5.8710217668
  N         4.8896138886        4.7653169961        7.8497693142
 Ga         4.9126330588        2.9142680957        8.5100502210
  N         4.9087037094        2.9137953939       10.4883025844
 Ga         4.8838472938        4.7773937953       11.1200348329
  N         4.8652764167        4.7837996920       13.1066437456
 Ga         4.9098061749        2.9147085961       13.6708194055
  N         4.8810268837        2.8985031637       15.6251117747
 Ga         5.0661302875        4.6657815490       16.5360601013
  N         6.5101810173        3.8385474121       17.6810489351
  N         3.2835084543        7.5264215768        2.5828007384
  N         3.2901979993        5.6725913571        5.1124099822
 Ga         3.2930807493        7.5416411921        5.8143004610
  N         3.2881323091        7.5419455186        7.8153059607
 Ga         3.2904139507        5.7010000645        8.4905093428
  N         3.2891916244        5.6944751737       10.4589695696
 Ga         3.2901703538        7.5321979137       11.1207920349
  N         3.2890281827        7.5115679281       13.1088106825
 Ga         3.2894982745        5.6907982539       13.9263578732
  N         3.2887161571        5.6914507174       16.1127839590
 Ga         3.2886946625        7.7328654485       16.5214525837
 Ga         4.1441558178       10.8918809324        0.6737264443
  N         1.7145222179       10.3466610039        2.5601025558
 Ga         1.7020913265        8.5653433371        3.2076687930
  N         1.6770075095        8.4660022567        5.2029130720
 Ga         1.6561174681       10.3386484503        5.8167858854
  N         1.6686390561       10.3318467331        7.8226472498
 Ga         1.6960239835        8.4857106850        8.4859588147
  N         1.6932644153        8.4829200855       10.4726857433
 Ga         1.6678057778       10.3433107372       11.1183752913
  N         1.6487017304       10.3528593672       13.1077153822
 Ga         1.6912553733        8.4836257706       13.6685375214
  N         1.6612225310        8.4665978612       15.6261143360
 Ga         1.8392797916       10.2430136202       16.5217513030
  N         3.2887741632        9.4061433782       17.6414380277
  N         9.7465721570        1.9379177439        2.6386341797
 Ga         9.6682952863        0.1451943846        3.2953731117
  N         9.7183274296        0.1200231316        5.2816228598
 Ga         9.7237916729        1.9673485167        5.9055455622
  N         9.7194337686        1.9779019103        7.8830081932
 Ga         9.7195473969        0.1060599889        8.4691344406
  N         9.7203309629        0.1079501707       10.4642061249
 Ga         9.7206731026        1.9763053892       11.0727344534
  N         9.7207091122        1.9775091939       13.0379410359
 Ga         9.7211032447        0.1096156133       13.6684259775
  N         9.7208445740        0.1446336584       15.6261967119
 Ga         9.7208101346        1.9822435840       15.9072543971
  N         8.0020955244        4.7040624757        2.5622185049
 Ga         8.2294540901        2.8276724835        3.2997131779
  N         8.1130401114        2.9018761789        5.2690969777
 Ga         8.1411148726        4.7737281697        5.8339960841
  N         8.1242503398        4.7683697795        7.8290692653
 Ga         8.1089766510        2.9145446080        8.4884624181
  N         8.1026502195        2.9147088548       10.4745841742
 Ga         8.1274396243        4.7737729537       11.1190927402
  N         8.1446084331        4.7828612503       13.1066095917
 Ga         8.1026231243        2.9133096429       13.6696709766
  N         8.1280319189        2.8969510113       15.6250664103
 Ga         7.9477117916        4.6687233939       16.5355077139
  N         6.4951481850        7.5675604861        2.6220947051
 Ga         6.5024170240        5.8409266406        3.3434151131
  N         6.5064286290        5.6983556266        5.2976320113
 Ga         6.4786502488        7.5720274896        5.8826038712
  N         6.4978822850        7.5548948231        7.8647111356
 Ga         6.5099065436        5.6888114061        8.4752511279
  N         6.5065355090        5.6814259799       10.4651912601
 Ga         6.5042786384        7.5488664988       11.0719338683
  N         6.5044097991        7.5489468321       13.0366782286
 Ga         6.5049702682        5.6804292109       13.6705913256
  N         6.5030311928        5.7111501375       15.6257117658
 Ga         6.5075097735        7.5478846993       15.9081770870
  N         4.8641829445       10.3796804063        2.5297305617
 Ga         4.9495419861        8.5118075828        3.1554192037
  N         4.8836047334        8.4865751633        5.1892812246
 Ga         4.9107659906       10.3376990181        5.8204930295
  N         4.9068646150       10.3351962921        7.8240872599
 Ga         4.8849123239        8.4847813263        8.4779231495
  N         4.8850001972        8.4825889969       10.4678762083
 Ga         4.9091466123       10.3419853024       11.1165710013
  N         4.9284320640       10.3525952997       13.1065809515
 Ga         4.8869560664        8.4835751732       13.6677809604
  N         4.9162110132        8.4665695623       15.6255785446
 Ga         4.7378763130       10.2429352698       16.5215257088
  O         0.7518756014        3.7075559926       -0.2853388253
  H         2.5578681990        3.3890272185        0.1845773075
  C         0.1660644147        2.7385701214       -1.1721431203
  H         0.0325526382        1.7549037531       -0.6887789951
  H        -0.8123761169        3.0759749568       -1.5460211395
  H         0.8441362883        2.6139525446       -2.0283021061
 Ga         3.2704990609        5.6042898234        3.0463593493
  O         3.4489926109        3.0649924986        0.4710925161
  H         0.0133326678        7.5073183059        1.6783990781
  C         3.2849024438        1.8433212923        1.1651871042
  H         4.1360872516        1.2027366260        0.8873279684
  H         3.2800137413        7.5920415665        1.5570852605
  H         2.3508069185        1.3452770966        0.8590040657

