#p

 i =       91, E =     -8504.8484892642

0 1
  N         0.0657745044        2.1155535307        2.5612656072
 Ga         0.0544509968        0.1434008671        2.9532796468
  N         0.0605844339        0.1393417965        5.1176176784
 Ga         0.0612654510        1.9526567019        5.8744483229
  N         0.0792002399        1.9773373234        7.8637978779
 Ga         0.0792038735        0.1235865978        8.4894457604
  N         0.0786281807        0.1258238077       10.4662499934
 Ga         0.0764171297        1.9655718234       11.1181748082
  N         0.0761829932        1.9475170602       13.1138192864
 Ga         0.0764470948        0.1266815504       13.9157391453
  N         0.0766647462        0.1261263953       16.1187931650
 Ga         0.0746206092        2.1624730701       16.5265399723
 Ga         0.0329873571        3.8494260177        1.3857426309
  N        -1.4149072129        4.7059065107        2.5658441094
 Ga        -1.6164247194        2.8712269377        3.3299950886
  N        -1.5285593730        2.9170220473        5.3136749163
 Ga        -1.5645639573        4.7818434617        5.8607235752
  N        -1.5387945942        4.7771993026        7.8573380543
 Ga        -1.5255845283        2.9194750362        8.4922160476
  N        -1.5202788038        2.9197734317       10.4866228710
 Ga        -1.5471964483        4.7797622242       11.1176803126
  N        -1.5638313427        4.7889592157       13.1130264059
 Ga        -1.5209459641        2.9202099033       13.6688630402
  N        -1.5484773305        2.9064680758       15.6323040871
 Ga        -1.3723184123        4.6772832258       16.5268801278
  N         0.0822096472        3.8367512509       17.6607001299
  N        -3.1401148961        7.6174438746        2.5206513990
 Ga        -3.1393009710        5.6814095913        2.9104671698
  N        -3.1404175452        5.6855914609        5.0921966363
 Ga        -3.1398129127        7.5226033131        5.8160259478
  N        -3.1395637909        7.5483597126        7.8259943755
 Ga        -3.1395434467        5.7051581311        8.4893620733
  N        -3.1395929089        5.7013536436       10.4668886812
 Ga        -3.1393174172        7.5394600961       11.1173688162
  N        -3.1401110106        7.5197263384       13.1121792133
 Ga        -3.1396608834        5.6994920879       13.9148980858
  N        -3.1399041325        5.6988143502       16.1188872659
 Ga        -3.1410584700        7.7406292189       16.5320472789
 Ga        -3.1424355839        9.1284807418        0.7555109163
  N        -4.7291768394       10.3160077166        2.5439564977
 Ga        -4.7316208223        8.4936001136        3.2565310176
  N        -4.7566520985        8.4782500955        5.2455796925
 Ga        -4.7900576247       10.3516461001        5.8272111457
  N        -4.7518142843       10.3442095529        7.8287902879
 Ga        -4.7327125161        8.4897720034        8.4792038794
  N        -4.7354527863        8.4904443067       10.4751848527
 Ga        -4.7621544143       10.3475956279       11.1177009554
  N        -4.7792978697       10.3583084623       13.1117819129
 Ga        -4.7372194903        8.4903095693       13.6703729761
  N        -4.7654777427        8.4754751341       15.6316926242
 Ga        -4.5830259699       10.2442335415       16.5331535493
  N        -3.1335804309        9.4081898486       17.6673115847
  N         3.2921368104        2.1769895059        2.5289353045
 Ga         3.2924608888       -0.1316250662        3.3027906874
  N         3.2924608812        0.1411483760        5.2370194889
 Ga         3.2929419693        1.9689390398        5.9309961820
  N         3.2926588001        1.9787063829        7.8952715034
 Ga         3.2928727601        0.1093958954        8.4850283314
  N         3.2927187462        0.1140346384       10.4776756849
 Ga         3.2931179121        1.9817825704       11.0794075482
  N         3.2917093524        1.9835485444       13.0502106329
 Ga         3.2916182661        0.1139315618       13.6714370899
  N         3.2896350836        0.1469731064       15.6326548023
 Ga         3.2912593263        1.9846696057       15.9121417301
  N         1.5595380334        4.7024533081        2.5595574966
 Ga         1.6119207650        2.9212799465        3.3861659549
  N         1.7000769601        2.9018756821        5.3059545365
 Ga         1.7156279196        4.7915549660        5.8640128049
  N         1.6930912483        4.7722019958        7.8524425496
 Ga         1.6759495211        2.9165465600        8.4968078556
  N         1.6763401728        2.9187725368       10.4863131824
 Ga         1.6994249320        4.7787596446       11.1212346894
  N         1.7156292471        4.7883918396       13.1153241100
 Ga         1.6722071084        2.9193240134       13.6704267462
  N         1.6988445201        2.9046304455       15.6348328581
 Ga         1.5278975796        4.6810133250       16.5271013173
  N         0.0843232833        7.5515602498        2.7154118237
 Ga         0.0630872753        5.7116108177        3.3697362088
  N         0.0780796585        5.7118717910        5.3091972546
 Ga         0.0659610585        7.5659999898        5.9269345569
  N         0.0748518156        7.5575711746        7.8975485504
 Ga         0.0746603104        5.6889232824        8.4910259550
  N         0.0778156088        5.6863956066       10.4832616906
 Ga         0.0755457493        7.5558820655       11.0751579778
  N         0.0750444866        7.5552963050       13.0476964070
 Ga         0.0750447976        5.6862621875       13.6695465776
  N         0.0735971923        5.7162047451       15.6328053057
 Ga         0.0753935764        7.5557798329       15.9115352196
  N        -1.5503383754       10.3166950876        2.5432930022
 Ga        -1.5485228071        8.4943030096        3.2559065139
  N        -1.5230016845        8.4784293263        5.2451924321
 Ga        -1.4892436815       10.3520081506        5.8264694589
  N        -1.5270872135       10.3442765141        7.8282696312
 Ga        -1.5464862417        8.4900274530        8.4793484270
  N        -1.5429373368        8.4901496194       10.4755586010
 Ga        -1.5171972926       10.3472517626       11.1182810301
  N        -1.5010321160       10.3582920363       13.1127727312
 Ga        -1.5436669254        8.4901593707       13.6708689394
  N        -1.5160462544        8.4735189120       15.6333670422
 Ga        -1.6925483646       10.2481680668       16.5322775285
  N         6.5194094357        2.1173281133        2.5585693944
 Ga         6.5309581110        0.1428694093        2.9516326192
  N         6.5248502213        0.1399594247        5.1164332336
 Ga         6.5238913779        1.9528432212        5.8744329685
  N         6.5062956062        1.9773350330        7.8636305051
 Ga         6.5063668780        0.1235572561        8.4892946255
  N         6.5064095409        0.1256383693       10.4661660876
 Ga         6.5092876688        1.9655472088       11.1181915490
  N         6.5077840210        1.9473974490       13.1138510702
 Ga         6.5085074522        0.1265797617       13.9163256060
  N         6.5084886179        0.1263888776       16.1191608927
 Ga         6.5077347411        2.1644538115       16.5280635293
 Ga         6.5572598899        3.8421278480        1.3796866838
  N         5.0245221782        4.7019613846        2.5614160424
 Ga         4.9724054512        2.9232414370        3.3850168952
  N         4.8855228751        2.9013361763        5.3052767557
 Ga         4.8697097826        4.7913760973        5.8627663841
  N         4.8922217734        4.7721733977        7.8516414506
 Ga         4.9094520520        2.9165442358        8.4964406941
  N         4.9094467081        2.9189885912       10.4857707316
 Ga         4.8856469761        4.7790194241       11.1208497952
  N         4.8683114282        4.7882580024       13.1145004270
 Ga         4.9108495292        2.9191727625       13.6703633030
  N         4.8824337808        2.9056463220       15.6331246396
 Ga         5.0625164851        4.6762691462       16.5294261965
  N         6.5149306896        3.8367572077       17.6602358288
  N         3.2927367264        7.6526747540        2.5655400597
  N         3.2921644310        5.6895002431        5.0877510111
 Ga         3.2922978887        7.5199314733        5.8484526485
  N         3.2926138414        7.5436634021        7.8448801442
 Ga         3.2927646051        5.6990676235        8.4963745329
  N         3.2924266090        5.6979846098       10.4692868201
 Ga         3.2928662015        7.5375659137       11.1211195273
  N         3.2919137842        7.5184861897       13.1148303205
 Ga         3.2923637085        5.6989609712       13.9174721349
  N         3.2928087760        5.6984706487       16.1198180912
 Ga         3.2913191848        7.7404392904       16.5316138294
 Ga         3.2933703820        9.4939074566        1.3013954967
  N         1.7888877293       10.2884090919        2.5818908042
 Ga         1.6885035844        8.4868908745        3.3386158061
  N         1.6748398699        8.4756821812        5.2908255019
 Ga         1.6677749165       10.3574263462        5.8581616116
  N         1.6770964947       10.3409554189        7.8560345140
 Ga         1.6944767598        8.4882215436        8.4908604316
  N         1.6958707711        8.4877520001       10.4832434030
 Ga         1.6692930510       10.3485236852       11.1172464672
  N         1.6518139070       10.3584291248       13.1123739046
 Ga         1.6940271241        8.4903181482       13.6699104131
  N         1.6666126735        8.4754144761       15.6317357490
 Ga         1.8485682655       10.2452106219       16.5316951474
  N         3.2986208427        9.4085685620       17.6672910419
  N         9.7244189762        1.9897657177        2.6953922721
 Ga         9.7248316085        0.2226267478        3.3189108325
  N         9.7249451212        0.1264116912        5.3066667661
 Ga         9.7251111406        1.9847889088        5.9163489659
  N         9.7249202802        1.9842053492        7.9028698743
 Ga         9.7251329936        0.1179510185        8.4900925661
  N         9.7250129982        0.1151356957       10.4853738753
 Ga         9.7257419838        1.9841869693       11.0781065870
  N         9.7246479054        1.9847319530       13.0509575549
 Ga         9.7239183173        0.1144239712       13.6696523829
  N         9.7221271486        0.1466272804       15.6316889189
 Ga         9.7239551943        1.9847522376       15.9096566150
  N         7.9980252847        4.7031005643        2.5594869311
 Ga         8.2014531240        2.8709473357        3.3314022654
  N         8.1137116013        2.9172994707        5.3137681228
 Ga         8.1491280426        4.7821752033        5.8614811183
  N         8.1240793744        4.7771162918        7.8576603802
 Ga         8.1110913440        2.9194470806        8.4925110344
  N         8.1064924091        2.9193639995       10.4870884230
 Ga         8.1326632661        4.7795526155       11.1180949949
  N         8.1481461173        4.7890382743       13.1138109283
 Ga         8.1048478399        2.9198835718       13.6694922743
  N         8.1322605851        2.9042639185       15.6337700603
 Ga         7.9587697167        4.6798466773       16.5278953214
  N         6.5007507831        7.5505357435        2.7150638673
 Ga         6.5200559137        5.7095305541        3.3668919354
  N         6.5074805479        5.7112902972        5.3073439161
 Ga         6.5191693977        7.5648973523        5.9265295754
  N         6.5103892662        7.5572885109        7.8973538867
 Ga         6.5106832868        5.6887526632        8.4910305243
  N         6.5076035705        5.6863302576       10.4832409143
 Ga         6.5109515662        7.5560036593       11.0750072269
  N         6.5091224840        7.5556134887       13.0472129754
 Ga         6.5082615943        5.6866033866       13.6698321914
  N         6.5059847722        5.7171753653       15.6327158906
 Ga         6.5077323226        7.5560332055       15.9115673211
  N         4.7964447812       10.2883838071        2.5818412770
 Ga         4.8972875672        8.4866539264        3.3386272380
  N         4.9102068260        8.4751979422        5.2908707942
 Ga         4.9176056456       10.3569876756        5.8585615801
  N         4.9084523948       10.3409206655        7.8562885636
 Ga         4.8909350196        8.4882692333        8.4908978740
  N         4.8900114090        8.4875277369       10.4835092337
 Ga         4.9161275315       10.3483248843       11.1175550045
  N         4.9322742826       10.3585795481       13.1130662449
 Ga         4.8894409588        8.4902598860       13.6703071725
  N         4.9157895303        8.4740760524       15.6333492217
 Ga         4.7398900747       10.2487561865       16.5311207927
  O         0.1379228859        3.7790422092       -0.4243683205
  H         7.0825962282        3.4299847346       -0.8644977035
  C        -0.9829500753        3.1671167239       -1.0886961092
  H        -1.1861552832        2.1481190861       -0.7194946584
  H        -1.9034178728        3.7632337698       -0.9765354078
  H        -0.7359941569        3.1075801188       -2.1585511937
 Ga         3.2945781743        5.6883869930        2.9102139071
  O         6.3187938605        3.8351731701       -0.4212680766
  H         0.1178000365        7.5182647037        1.6894922487
  C         3.2895690420        1.9316900255        1.2595098868
  H         6.4668731988        7.5185714741        1.6891427477
  H         4.2286004125        1.8172174759        0.6987546754
  H         2.3478836074        1.8149185912        0.7032814742

