     212
 i =      194, E =     -8504.7365028789
  N         0.0498690950        1.9959359708        2.4863689752
 Ga         0.0690047322        0.0274471650        2.8214565928
  N         0.0517929570       -0.0047087855        5.0082967118
 Ga         0.0553635091        1.8209944452        5.7905661447
  N         0.0549806110        1.8361513799        7.7930853802
 Ga         0.0572289935       -0.0093185442        8.4353417456
  N         0.0567942291       -0.0094393494       10.4117150941
 Ga         0.0569064898        1.8307677629       11.0612193571
  N         0.0582201606        1.8116395409       13.0566285008
 Ga         0.0585041868       -0.0085665956       13.8585735911
  N         0.0590893830       -0.0070884326       16.0631166537
 Ga         0.0592427771        2.0375398206       16.4760953577
 Ga         0.0190807493        3.6966239915        1.3585830781
  N        -1.4341117674        4.5668412997        2.5125387459
 Ga        -1.6263454287        2.7302805358        3.2748950254
  N        -1.5562922288        2.7749681206        5.2522547104
 Ga        -1.5864115430        4.6418571389        5.8017898222
  N        -1.5627116717        4.6390865328        7.7977156472
 Ga        -1.5427270737        2.7793841368        8.4309817233
  N        -1.5410533051        2.7827816416       10.4264104090
 Ga        -1.5674198134        4.6410489183       11.0646494898
  N        -1.5816749853        4.6514338319       13.0595600469
 Ga        -1.5383955965        2.7821875828       13.6144272708
  N        -1.5640799845        2.7661752751       15.5776292440
 Ga        -1.3907003799        4.5418401244       16.4760479991
  N         0.0593060124        3.7126305230       17.6112809177
  N        -3.1606219213        7.5340460761        2.5018633524
 Ga        -3.1368152015        5.5519906872        2.8332116496
  N        -3.1612035635        5.5589690891        5.0176908026
 Ga        -3.1684947094        7.3842396839        5.7895765436
  N        -3.1600671787        7.4080585759        7.7875156115
 Ga        -3.1614306872        5.5624730862        8.4408882509
  N        -3.1600319519        5.5626824148       10.4149199634
 Ga        -3.1613081051        7.4021574917       11.0643056080
  N        -3.1582838712        7.3822719662       13.0582172187
 Ga        -3.1580783172        5.5620045848       13.8605460918
  N        -3.1568267454        5.5632634125       16.0639590460
 Ga        -3.1573186730        7.6092158597       16.4763090186
 Ga        -3.1831151907        9.2826702023        1.3491328758
  N        -4.6695668796       10.1450168672        2.5001223372
 Ga        -4.8561719532        8.3026337972        3.2523751596
  N        -4.7690589274        8.3464399062        5.2311092018
 Ga        -4.7963689956       10.2195677776        5.7781643795
  N        -4.7786882917       10.2087373293        7.7829034462
 Ga        -4.7597184300        8.3545352081        8.4255688926
  N        -4.7565648717        8.3535748129       10.4218086517
 Ga        -4.7819078757       10.2122566101       11.0613949800
  N        -4.7972521524       10.2215625247       13.0568092299
 Ga        -4.7552365504        8.3529403482       13.6143220407
  N        -4.7804227033        8.3363786144       15.5766911265
 Ga        -4.6063085066       10.1123827715       16.4751840740
  N        -3.1576127175        9.2841929668       17.6102956242
  N         3.2584212238        1.8491591571        2.6128936710
 Ga         3.2625677580        0.0898024894        3.2516576611
  N         3.2720509068       -0.0118763051        5.2311159140
 Ga         3.2624329487        1.8432612198        5.8575287988
  N         3.2713008167        1.8461049034        7.8381522387
 Ga         3.2690751080       -0.0201571423        8.4254617564
  N         3.2726575473       -0.0215633240       10.4221356442
 Ga         3.2726571817        1.8477791360       11.0181697318
  N         3.2744946521        1.8480412098       12.9914096408
 Ga         3.2740704328       -0.0212800152       13.6140916090
  N         3.2754896382        0.0104342585       15.5776296695
 Ga         3.2756800186        1.8481354213       15.8566935570
  N         1.5429699969        4.5730792524        2.5125974577
 Ga         1.7312296159        2.7339224330        3.2583239400
  N         1.6625310261        2.7757137677        5.2431259612
 Ga         1.6908305923        4.6385976105        5.7988652260
  N         1.6728245785        4.6394039252        7.7948888173
 Ga         1.6542143764        2.7788121345        8.4282045324
  N         1.6540048444        2.7829016346       10.4244134642
 Ga         1.6798765672        4.6404477017       11.0644521034
  N         1.6976721837        4.6512697330       13.0588728751
 Ga         1.6552371304        2.7817705851       13.6138249926
  N         1.6826483576        2.7662225653       15.5767103575
 Ga         1.5083944549        4.5412714692       16.4760822129
  N         0.0427301751        7.4007266560        2.6817040534
 Ga         0.0542203259        5.5588001461        3.3262543157
  N         0.0532569041        5.5743291247        5.2645141117
 Ga         0.0479551347        7.4149637391        5.8979597546
  N         0.0542321120        7.4197738869        7.8572398653
 Ga         0.0548826458        5.5463195095        8.4383147440
  N         0.0563658350        5.5491333856       10.4298632524
 Ga         0.0556292653        7.4185935464       11.0230212180
  N         0.0579082601        7.4186546129       12.9942417395
 Ga         0.0580391826        5.5484345335       13.6156126041
  N         0.0593419181        5.5806282726       15.5793687711
 Ga         0.0590821465        7.4185300551       15.8576076360
  N        -1.6534869824       10.1373952420        2.5035688199
 Ga        -1.5446101574        8.3322707117        3.2962048684
  N        -1.5424282802        8.3392499492        5.2385554941
 Ga        -1.5323256328       10.2225595411        5.7909480685
  N        -1.5438516435       10.2066616190        7.7874554116
 Ga        -1.5676226386        8.3544552915        8.4372859126
  N        -1.5634222013        8.3536951404       10.4280851753
 Ga        -1.5381329031       10.2133625658       11.0641236721
  N        -1.5185851847       10.2218337241       13.0581728663
 Ga        -1.5612842255        8.3528974020       13.6152162668
  N        -1.5336420012        8.3365746886       15.5773426264
 Ga        -1.7082446347       10.1122296120       16.4754350218
  N         6.4857285760        1.9709618487        2.5284817076
 Ga         6.4724699743       -0.0080407134        2.8548406580
  N         6.4881888570       -0.0090519279        5.0177116479
 Ga         6.4850692646        1.8208340653        5.7977044152
  N         6.4870943103        1.8355757088        7.7938909357
 Ga         6.4853949597       -0.0101465447        8.4389352163
  N         6.4882064933       -0.0096145541       10.4129751252
 Ga         6.4881860282        1.8314740311       11.0620818374
  N         6.4900717995        1.8114518322       13.0569544607
 Ga         6.4901354659       -0.0084616946       13.8601385158
  N         6.4915069848       -0.0072521701       16.0635691600
 Ga         6.4915359452        2.0348944836       16.4733363885
 Ga         6.4859848690        3.7024765412        1.5184384244
  N         4.9834263795        4.5708804516        2.5265652624
 Ga         4.7657060320        2.7133444809        3.2889676082
  N         4.8764140168        2.7751397479        5.2500766218
 Ga         4.8549861826        4.6463670109        5.7954164826
  N         4.8693539720        4.6391286164        7.7920182265
 Ga         4.8866175909        2.7801308640        8.4283041745
  N         4.8912479176        2.7829017028       10.4237772234
 Ga         4.8667694629        4.6412377386       11.0628386249
  N         4.8511937334        4.6511860760       13.0579637293
 Ga         4.8935204824        2.7821554365       13.6135759049
  N         4.8689484914        2.7667506270       15.5770477302
 Ga         5.0393768760        4.5436054250       16.4729710857
  N         6.4919434245        3.7138419169       17.6064767607
  N         3.2605028923        7.5402726589        2.4927113967
  N         3.2704173446        5.5631022544        5.0173272344
 Ga         3.2737277612        7.3843910929        5.7987490322
  N         3.2686662142        7.4081002958        7.7911696910
 Ga         3.2714106163        5.5602698467        8.4415220812
  N         3.2726356043        5.5622040194       10.4146644212
 Ga         3.2743609272        7.4014388968       11.0648218659
  N         3.2745217957        7.3820790282       13.0584254919
 Ga         3.2746286185        5.5617031885       13.8595452185
  N         3.2751518041        5.5635453147       16.0646019654
 Ga         3.2757692720        7.6060360351       16.4744366843
 Ga         3.2967310077        9.3044977706        1.4808657653
  N         1.7642991233       10.1360523240        2.5143978854
 Ga         1.6231093963        8.3178329731        3.3085464763
  N         1.6476982606        8.3370118219        5.2413055630
 Ga         1.6337787874       10.2211397019        5.8001529442
  N         1.6530128951       10.2051870175        7.7922900490
 Ga         1.6744990123        8.3528806812        8.4415832836
  N         1.6756992104        8.3533446886       10.4303219372
 Ga         1.6496454944       10.2136670612       11.0651484734
  N         1.6342167747       10.2219595525       13.0591523469
 Ga         1.6773614940        8.3528922590       13.6150651664
  N         1.6523887980        8.3367240152       15.5774937541
 Ga         1.8232905100       10.1143259667       16.4736403290
  N         3.2763786740        9.2847515203       17.6062610075
  N         9.7099100757        1.8521163916        2.6205842514
 Ga         9.7070143294        0.1128004349        3.2901100239
  N         9.6993946763       -0.0130608750        5.2500161556
 Ga         9.7069004557        1.8492144939        5.8700122443
  N         9.7021882260        1.8462077129        7.8454655297
 Ga         9.7050367104       -0.0204950427        8.4307298071
  N         9.7043434619       -0.0217342321       10.4253879968
 Ga         9.7050484711        1.8482697660       11.0202375229
  N         9.7060510361        1.8479159321       12.9932669865
 Ga         9.7067140831       -0.0218554103       13.6150613321
  N         9.7075966394        0.0100858392       15.5787509386
 Ga         9.7076609620        1.8483433294       15.8580587695
  N         7.9881278244        4.5703637660        2.5242503944
 Ga         8.2009289855        2.7199001102        3.2926787691
  N         8.0947630624        2.7754005968        5.2538515525
 Ga         8.1212047757        4.6487545614        5.7962430079
  N         8.1049392222        4.6388593824        7.7938708328
 Ga         8.0858934794        2.7813465361        8.4317984838
  N         8.0857102255        2.7828176331       10.4263177550
 Ga         8.1109648576        4.6418095566       11.0632278321
  N         8.1293942473        4.6511535459       13.0587527154
 Ga         8.0866776615        2.7822951146       13.6144329690
  N         8.1141247422        2.7662649564       15.5779448236
 Ga         7.9452340394        4.5441879669       16.4725587930
  N         6.4867311571        7.4195295613        2.6045881087
 Ga         6.4896489265        5.6814242964        3.2872363991
  N         6.4867215531        5.5631561460        5.2485021181
 Ga         6.4906947187        7.4223970179        5.8609626121
  N         6.4873683177        7.4190171879        7.8377427534
 Ga         6.4876839559        5.5516766999        8.4295748407
  N         6.4886363678        5.5498621178       10.4247432867
 Ga         6.4897961391        7.4193211711       11.0188381377
  N         6.4904664745        7.4183795334       12.9917895618
 Ga         6.4904342992        5.5486122385       13.6147456887
  N         6.4913466327        5.5800786077       15.5790755000
 Ga         6.4919597110        7.4181671167       15.8578844766
  N         4.7759308692       10.1477956141        2.5206320682
 Ga         4.9782382389        8.2876252518        3.2777847331
  N         4.8744625047        8.3465727798        5.2414799187
 Ga         4.9093203345       10.2208335691        5.7900915202
  N         4.8890524451       10.2085472121        7.7892068460
 Ga         4.8715839863        8.3531578002        8.4287385430
  N         4.8698101548        8.3528985524       10.4233435283
 Ga         4.8960602233       10.2122752426       11.0615858213
  N         4.9137054980       10.2214495893       13.0573113943
 Ga         4.8719366471        8.3528445345       13.6145255234
  N         4.8987677532        8.3361870683       15.5769418013
 Ga         4.7290735673       10.1145672974       16.4731043861
  O         0.0209992203        4.0411389199       -0.4484620597
  H         0.0442366903        5.8280103367       -0.3810238330
  C         1.0670833102        3.4293857563       -1.2282892855
  H         2.0704599738        3.6740927993       -0.8432223875
  H         0.9616443539        2.3341027238       -1.2520192409
  H         0.9828804671        3.8081452609       -2.2566852820
 Ga         3.2438078435        5.5342802956        2.8570988176
  O         0.1758385745        6.8051296815       -0.2449164188
  H         0.0323929127        7.3304121873        1.6443796952
  C         1.5393311907        7.0866682140       -0.5849355710
  H         1.6204026746        8.1748312237       -0.7360828543
  H         2.2357989412        6.7936279841        0.2220372803
  H         1.8418249438        6.5961306704       -1.5212760411
