     212
 i =       16, E =     -8504.7338666229
  N         0.0743917936        1.9774835983        2.4787992907
 Ga         0.0773519732        0.0120104881        2.8241498713
  N         0.0783520299       -0.0276651684        5.0014857858
 Ga         0.0799304882        1.8006232582        5.7944237812
  N         0.0796543442        1.8137603090        7.7908752103
 Ga         0.0791702217       -0.0299588364        8.4427610779
  N         0.0794148750       -0.0312703345       10.4122330500
 Ga         0.0798331405        1.8077722711       11.0715623551
  N         0.0799155395        1.7884341533       13.0610381228
 Ga         0.0800095761       -0.0328534340       13.8761849316
  N         0.0796271478       -0.0318743524       16.0640189924
 Ga         0.0795607710        2.0099519559       16.4747422185
 Ga         0.0412265874        3.6869794441        1.3588677797
  N        -1.4109864146        4.5465311647        2.5183804891
 Ga        -1.6043374198        2.7062942918        3.2747025620
  N        -1.5318633043        2.7521806587        5.2489200459
 Ga        -1.5610353608        4.6172815010        5.8080351928
  N        -1.5392949698        4.6167690114        7.7974241698
 Ga        -1.5187297389        2.7566584948        8.4374822651
  N        -1.5171742758        2.7605483188       10.4264292639
 Ga        -1.5447538488        4.6189480329       11.0743115999
  N        -1.5611924776        4.6303564154       13.0627721460
 Ga        -1.5184214701        2.7599555797       13.6201853500
  N        -1.5486285049        2.7429547725       15.5785339093
 Ga        -1.3691851016        4.5193780674       16.4749978431
  N         0.0792629542        3.6825226651       17.5920250062
  N        -3.1354204072        7.5169238675        2.5177373581
 Ga        -3.1143136100        5.5160358830        2.8489272010
  N        -3.1372962966        5.5394947232        5.0152949737
 Ga        -3.1458238998        7.3593321775        5.8066835546
  N        -3.1367880400        7.3853184337        7.7928784695
 Ga        -3.1375923133        5.5380480524        8.4494245910
  N        -3.1367767546        5.5400319194       10.4162155902
 Ga        -3.1383272960        7.3787441295       11.0740176302
  N        -3.1366652138        7.3598747344       13.0598312537
 Ga        -3.1387439410        5.5411669814       13.8775992283
  N        -3.1377687410        5.5407178750       16.0644148675
 Ga        -3.1375323600        7.5918896043       16.4882128177
 Ga        -3.1523640241        9.2537473657        1.4647800089
  N        -4.6420497696       10.1210729505        2.5064631461
 Ga        -4.8514179527        8.2705868028        3.2794225105
  N        -4.7453703793        8.3246886196        5.2407660362
 Ga        -4.7748052615       10.1991355948        5.7929581024
  N        -4.7553004283       10.1869059403        7.7861611221
 Ga        -4.7374072482        8.3320869380        8.4368366158
  N        -4.7337698326        8.3315967881       10.4241090391
 Ga        -4.7600958443       10.1910710115       11.0708438978
  N        -4.7763378644       10.2007521073       13.0578511672
 Ga        -4.7333926698        8.3322370854       13.6216018171
  N        -4.7603282167        8.3164701765       15.5763625425
 Ga        -4.5764817217       10.0841757833       16.4880267676
  N        -3.1326593965        9.2564101857       17.6354143685
  N         3.2837169294        1.8306746382        2.6051922569
 Ga         3.2857657694        0.0888559477        3.2761476545
  N         3.2958885299       -0.0340315976        5.2388560065
 Ga         3.2862868391        1.8276247465        5.8679158975
  N         3.2950453506        1.8245529812        7.8402569055
 Ga         3.2928275043       -0.0408999495        8.4365454965
  N         3.2956188463       -0.0440219552       10.4237047691
 Ga         3.2963367652        1.8260724468       11.0255535602
  N         3.2962418377        1.8260960076       12.9907723345
 Ga         3.2954448359       -0.0429235204       13.6222394649
  N         3.2938970463       -0.0126651817       15.5779390270
 Ga         3.2997994810        1.8247420393       15.8602798358
  N         1.5651524958        4.5515145601        2.5096944272
 Ga         1.7552346467        2.7156922063        3.2575977764
  N         1.6871951969        2.7535431942        5.2394804019
 Ga         1.7170423452        4.6161317793        5.8064913092
  N         1.6973847399        4.6166736101        7.7962828073
 Ga         1.6773019418        2.7572927894        8.4377717880
  N         1.6767932079        2.7606990145       10.4264418245
 Ga         1.7041172309        4.6191227041       11.0740768809
  N         1.7210140075        4.6304624805       13.0625403740
 Ga         1.6779621312        2.7602797686       13.6205021214
  N         1.7081906792        2.7429992692       15.5788735303
 Ga         1.5279491799        4.5191977603       16.4751431802
  N         0.0693921411        7.3759459547        2.6938231270
 Ga         0.0811907391        5.5330169281        3.3369402330
  N         0.0779268415        5.5512619585        5.2699120365
 Ga         0.0790335984        7.3902364005        5.9098198272
  N         0.0790687735        7.3971768613        7.8619373013
 Ga         0.0793244308        5.5225737006        8.4474635601
  N         0.0795857006        5.5263350459       10.4316216911
 Ga         0.0796037886        7.3967426854       11.0298867959
  N         0.0796986070        7.3971525276       12.9935430100
 Ga         0.0799697297        5.5279722962       13.6215109023
  N         0.0797901644        5.5637474353       15.5796424699
 Ga         0.0799847632        7.4013295261       15.8606329055
  N        -1.6321066496       10.1088792183        2.5137417654
 Ga        -1.5031538535        8.2985965221        3.3303910197
  N        -1.5190763211        8.3169508230        5.2563623794
 Ga        -1.5064341091       10.2023051209        5.8067507842
  N        -1.5194926311       10.1854682450        7.7922007355
 Ga        -1.5424771948        8.3318983434        8.4485582906
  N        -1.5407237808        8.3318484569       10.4302917545
 Ga        -1.5141180384       10.1920467678       11.0738392399
  N        -1.4960754195       10.2010715591       13.0602475893
 Ga        -1.5398598752        8.3318507224       13.6229971884
  N        -1.5140680632        8.3151448217       15.5785270461
 Ga        -1.6940271288       10.0868271310       16.4886810111
  N         6.5092130669        1.9482639811        2.5272721205
 Ga         6.5102649009       -0.0246922579        2.8648913010
  N         6.5096889050       -0.0336391389        5.0133836608
 Ga         6.5094536024        1.8001192820        5.8010036023
  N         6.5108911519        1.8129230432        7.7914419289
 Ga         6.5115639075       -0.0306761615        8.4476234245
  N         6.5118558157       -0.0314066387       10.4142985772
 Ga         6.5119085214        1.8092896682       11.0710656938
  N         6.5120468093        1.7892690733       13.0586910491
 Ga         6.5121006291       -0.0298080469       13.8774644856
  N         6.5120552641       -0.0302236134       16.0638777305
 Ga         6.5118955016        2.0166159820       16.4873403960
 Ga         6.5122848029        3.6805195451        1.5088742769
  N         5.0074399162        4.5489065583        2.5221627398
 Ga         4.7919148159        2.6960524718        3.2886500767
  N         4.9001515716        2.7527731539        5.2479415899
 Ga         4.8780360863        4.6248599193        5.8004840803
  N         4.8933456550        4.6169426244        7.7915737303
 Ga         4.9114880070        2.7586755653        8.4363903090
  N         4.9151386858        2.7610678354       10.4239209380
 Ga         4.8891137261        4.6200272377       11.0709011877
  N         4.8719934526        4.6300977955       13.0579714146
 Ga         4.9149194495        2.7614089844       13.6212068954
  N         4.8882986761        2.7481104116       15.5773072961
 Ga         5.0723951693        4.5153762120       16.4869698641
  N         6.5118154735        3.6781827392       17.6346311332
  N         3.2862043390        7.5168159548        2.5018500172
  N         3.2941138957        5.5402018804        5.0170887806
 Ga         3.2979919055        7.3616092517        5.8037665097
  N         3.2928486801        7.3864533638        7.7906495077
 Ga         3.2956514539        5.5387946661        8.4477690919
  N         3.2957000307        5.5405112321       10.4150186507
 Ga         3.2975956134        7.3788138611       11.0739790718
  N         3.2962775079        7.3598652799       13.0598059993
 Ga         3.2986594091        5.5410749971       13.8772290070
  N         3.2971148664        5.5407480894       16.0645273897
 Ga         3.2968654713        7.5912693604       16.4876816778
 Ga         3.3204201708        9.2705208522        1.4529229263
  N         1.7865939012       10.1112478618        2.5077986970
 Ga         1.6534180712        8.2983256621        3.3091421242
  N         1.6718561594        8.3150129791        5.2412996951
 Ga         1.6606337103       10.1980262036        5.8038117666
  N         1.6764496297       10.1836938317        7.7902786534
 Ga         1.6996827450        8.3317616487        8.4498153307
  N         1.6997527091        8.3320955358       10.4309874558
 Ga         1.6731746690       10.1923059189       11.0743262623
  N         1.6558794166       10.2010132491       13.0606446581
 Ga         1.6994146797        8.3315559439       13.6228063868
  N         1.6740603431        8.3151919030       15.5785259073
 Ga         1.8527903337       10.0871276035       16.4879284490
  N         3.2917383732        9.2564715655       17.6355011755
  N         9.7335310213        1.8285045992        2.6143920571
 Ga         9.7299246743        0.0860642755        3.2811606647
  N         9.7229970416       -0.0354225633        5.2427043922
 Ga         9.7317475951        1.8256007084        5.8722394694
  N         9.7265423582        1.8239914442        7.8431275795
 Ga         9.7291429129       -0.0423183742        8.4358671299
  N         9.7276145750       -0.0445412821       10.4232653813
 Ga         9.7277556015        1.8257506013       11.0250151839
  N         9.7276692997        1.8259082550       12.9905375678
 Ga         9.7290187440       -0.0429688904       13.6222375755
  N         9.7303066279       -0.0129688677       15.5781432836
 Ga         9.7245291324        1.8245539901       15.8603230248
  N         8.0116909231        4.5486804910        2.5256252532
 Ga         8.2255811738        2.6953735673        3.2923814887
  N         8.1191856604        2.7528260808        5.2510239939
 Ga         8.1430388605        4.6253647713        5.8000902665
  N         8.1291456624        4.6172797039        7.7916883124
 Ga         8.1102408063        2.7591369925        8.4369230277
  N         8.1084485809        2.7610012350       10.4243513722
 Ga         8.1342029922        4.6197076432       11.0715067779
  N         8.1520709600        4.6300952301       13.0584630397
 Ga         8.1091428594        2.7614185451       13.6214036252
  N         8.1359298400        2.7479168388       15.5775899148
 Ga         7.9515576043        4.5154580581       16.4869920539
  N         6.5074813837        7.3954106301        2.5989420310
 Ga         6.5087540259        5.6559629750        3.2881086918
  N         6.5101396006        5.5419019902        5.2470946444
 Ga         6.5087667998        7.3979788987        5.8716744433
  N         6.5104809801        7.3969996844        7.8402166607
 Ga         6.5112567367        5.5285438832        8.4372643437
  N         6.5117614355        5.5278024668       10.4246815619
 Ga         6.5116995821        7.3970804644       11.0260654549
  N         6.5117347853        7.3970547587       12.9923968890
 Ga         6.5120237018        5.5267276647       13.6210545277
  N         6.5119535997        5.5581936433       15.5762790468
 Ga         6.5120424846        7.3970044323       15.8536406720
  N         4.7991657838       10.1230577282        2.5134729075
 Ga         4.9991729192        8.2677998422        3.2773822157
  N         4.8988409886        8.3243458260        5.2391869545
 Ga         4.9310561715       10.1985824329        5.7921784466
  N         4.9136158708       10.1871675982        7.7855956967
 Ga         4.8941382393        8.3324993500        8.4359456559
  N         4.8925441271        8.3314863023       10.4234877478
 Ga         4.9189948839       10.1907909546       11.0706130053
  N         4.9360474208       10.2007046775       13.0577893167
 Ga         4.8926763382        8.3324495957       13.6218377577
  N         4.9196466076        8.3165572110       15.5768196115
 Ga         4.7365118130       10.0845455542       16.4875560431
  O         0.0211275065        4.1026985351       -0.4365077242
  H        -0.1684420000        5.8827892136       -0.3442813323
  C         1.1401720228        3.6498172664       -1.2215493374
  H         2.1054529887        3.9562159359       -0.7862286986
  H         1.1376503407        2.5539869872       -1.3262937241
  H         1.0490098708        4.0935821543       -2.2232534737
 Ga         3.2665434711        5.5156210251        2.8578121344
  O        -0.1904635738        6.8689772338       -0.2011667226
  H         0.0189606939        7.3071126585        1.6570678667
  C         0.9742820259        7.4192358155       -0.8271496786
  H         0.9188495749        8.5113908364       -0.7166185671
  H         1.9050503829        7.0645986392       -0.3491528662
  H         1.0171537938        7.1840338134       -1.9014403187
