     212
 i =       39, E =     -8504.7059038705
  N         0.0369950833        1.9860329077        2.4921910162
 Ga         0.0344211012        0.0204741803        2.8296580092
  N         0.0390970197       -0.0155439623        5.0136730797
 Ga         0.0378383968        1.8086152406        5.7988400206
  N         0.0379658434        1.8236753669        7.7998322324
 Ga         0.0375668121       -0.0228373509        8.4384184900
  N         0.0386352047       -0.0229480963       10.4149382931
 Ga         0.0392170354        1.8171884561       11.0650461886
  N         0.0395821431        1.7978346793       13.0602546385
 Ga         0.0397217615       -0.0220525075       13.8626431859
  N         0.0398176548       -0.0200348165       16.0668066040
 Ga         0.0393033263        2.0231817129       16.4769243806
 Ga         0.0218629620        3.6927023047        1.3647508647
  N        -1.4424742139        4.5623434178        2.5121176128
 Ga        -1.6389096597        2.7229883173        3.2752398630
  N        -1.5702775940        2.7661292250        5.2548923081
 Ga        -1.6002226798        4.6313470281        5.8062026485
  N        -1.5791143244        4.6279311670        7.8015636956
 Ga        -1.5594939736        2.7679814564        8.4360476060
  N        -1.5581468477        2.7704668146       10.4307620048
 Ga        -1.5844152900        4.6287979457       11.0681464316
  N        -1.6003509113        4.6385756644       13.0626250718
 Ga        -1.5573463963        2.7687165172       13.6166996840
  N        -1.5836686260        2.7530777816       15.5798665711
 Ga        -1.4130286011        4.5302908874       16.4764878120
  N         0.0389961042        3.7009469422       17.6094612779
  N        -3.1798852354        7.5302758658        2.5118542094
 Ga        -3.1519385877        5.5324042681        2.8379759833
  N        -3.1756731110        5.5498952192        5.0162786173
 Ga        -3.1850716236        7.3724268630        5.7956522400
  N        -3.1767000075        7.3960265572        7.7905708930
 Ga        -3.1779802520        5.5500088883        8.4446612638
  N        -3.1773361767        5.5500746482       10.4181292089
 Ga        -3.1790545524        7.3893601222       11.0674393619
  N        -3.1771265505        7.3694676182       13.0611118200
 Ga        -3.1771166125        5.5493396740       13.8637616172
  N        -3.1771326551        5.5507415124       16.0675490566
 Ga        -3.1770151784        7.5960898588       16.4793793338
 Ga        -3.2012500881        9.2769679912        1.4443013373
  N        -4.6864953997       10.1357085891        2.5110684223
 Ga        -4.9007790580        8.2869983616        3.2694031283
  N        -4.7872569686        8.3353912118        5.2375274413
 Ga        -4.8153879724       10.2083801284        5.7902244941
  N        -4.7950115765       10.1963085840        7.7901384933
 Ga        -4.7789535334        8.3405129017        8.4279979770
  N        -4.7746595328        8.3400513059       10.4239424891
 Ga        -4.8004961166       10.1985592029       11.0649638991
  N        -4.8161953850       10.2082494948       13.0602768481
 Ga        -4.7739811111        8.3398825343       13.6181505238
  N        -4.8001117399        8.3236449816       15.5803298939
 Ga        -4.6271484741       10.1000040573       16.4780765745
  N        -3.1770247536        9.2718863714       17.6120592157
  N         3.2426151817        1.8405258698        2.6196527364
 Ga         3.2456159345        0.0937361080        3.2781285894
  N         3.2558881966       -0.0245383118        5.2453992599
 Ga         3.2481952222        1.8342524824        5.8716034904
  N         3.2557380127        1.8334039183        7.8485949275
 Ga         3.2528577910       -0.0330600892        8.4340230193
  N         3.2552266719       -0.0349288743       10.4287155056
 Ga         3.2551675880        1.8351040304       11.0233513849
  N         3.2556933203        1.8347081613       12.9961303261
 Ga         3.2552545963       -0.0350335839       13.6181586566
  N         3.2552578687       -0.0028042509       15.5814824123
 Ga         3.2556495420        1.8348065741       15.8603038227
  N         1.5304680079        4.5543046650        2.5406215899
 Ga         1.7132530471        2.7195289075        3.2749292918
  N         1.6477971966        2.7611136493        5.2570492358
 Ga         1.6746299574        4.6261869369        5.8066079641
  N         1.6567926388        4.6267489934        7.8012288425
 Ga         1.6370892566        2.7665635767        8.4349722679
  N         1.6366271051        2.7699011333       10.4300750396
 Ga         1.6626978536        4.6282315931       11.0678467079
  N         1.6794803927        4.6384076477       13.0624607045
 Ga         1.6362272491        2.7688481333       13.6171800608
  N         1.6624890976        2.7530524162       15.5802397833
 Ga         1.4911838503        4.5299969250       16.4766513705
  N         0.0370565061        7.3956429949        2.6938885676
 Ga         0.0464841659        5.5526728594        3.3354489034
  N         0.0384251538        5.5639010485        5.2729009819
 Ga         0.0430103126        7.4064146229        5.8970520402
  N         0.0399545559        7.4090834477        7.8576511704
 Ga         0.0391527674        5.5359956636        8.4411047590
  N         0.0392382500        5.5370283264       10.4328476634
 Ga         0.0387752624        7.4060511241       11.0265960697
  N         0.0393366602        7.4058388094       12.9978931253
 Ga         0.0396575240        5.5354657002       13.6185366205
  N         0.0394723153        5.5678953791       15.5825260224
 Ga         0.0392268884        7.4060711958       15.8613839773
  N        -1.6734151688       10.1266092962        2.5140120527
 Ga        -1.5421189736        8.3145092487        3.3121756088
  N        -1.5575116730        8.3279876233        5.2470082239
 Ga        -1.5452643511       10.2112789823        5.8022458538
  N        -1.5600976367       10.1943317523        7.7950798835
 Ga        -1.5821476116        8.3409914120        8.4411510031
  N        -1.5805899984        8.3404346139       10.4313319793
 Ga        -1.5546833817       10.1999837902       11.0684566102
  N        -1.5369491394       10.2087464888       13.0623958879
 Ga        -1.5803840754        8.3399817701       13.6190642606
  N        -1.5535009233        8.3234936614       15.5811249492
 Ga        -1.7268086731       10.1001407175       16.4783183116
  N         6.4701071516        1.9613727323        2.5330257785
 Ga         6.4724996386       -0.0146273798        2.8605001137
  N         6.4690169671       -0.0208471715        5.0230168648
 Ga         6.4709172865        1.8086926084        5.8032813300
  N         6.4713410123        1.8233084889        7.7991811025
 Ga         6.4714602549       -0.0225344137        8.4436694090
  N         6.4714823162       -0.0226495483       10.4173065450
 Ga         6.4715997400        1.8184240121       11.0663185538
  N         6.4717709998        1.7980099478       13.0606620408
 Ga         6.4717213441       -0.0213490085       13.8646508599
  N         6.4711605261       -0.0196227852       16.0673254678
 Ga         6.4716115349        2.0245046053       16.4781012563
 Ga         6.4701984933        3.6916448782        1.5166158946
  N         4.9691113078        4.5554841482        2.5351954260
 Ga         4.7543827986        2.7018921596        3.2955157838
  N         4.8607143519        2.7619833839        5.2574683043
 Ga         4.8417922798        4.6335956293        5.8026282977
  N         4.8537039679        4.6261713690        7.7975638592
 Ga         4.8718124082        2.7679137826        8.4359726025
  N         4.8742725620        2.7700815493       10.4298877843
 Ga         4.8496430795        4.6293861222       11.0661505661
  N         4.8324476779        4.6384808218       13.0610450117
 Ga         4.8750734990        2.7691927127       13.6171454038
  N         4.8484206182        2.7531834605       15.5799325491
 Ga         5.0207251065        4.5296822962       16.4774144179
  N         6.4717590382        3.7012697739       17.6099867267
  N         3.2092405700        7.5064682030        2.3864290564
  N         3.2563026259        5.5493224197        5.0278922508
 Ga         3.2589636007        7.3765829592        5.7990552186
  N         3.2523182788        7.3960182648        7.7924350622
 Ga         3.2555234076        5.5492014657        8.4444809315
  N         3.2555577179        5.5497354324       10.4179125820
 Ga         3.2571937234        7.3886777050       11.0682832363
  N         3.2560661396        7.3690708245       13.0617855116
 Ga         3.2563396253        5.5487979530       13.8640454004
  N         3.2558511229        5.5500716999       16.0675843898
 Ga         3.2557451058        7.5942355148       16.4776394875
 Ga         3.2901117446        9.3964426493        1.3686562384
  N         1.7497669256       10.1427319219        2.5196694610
 Ga         1.6389830256        8.3213513003        3.2853419277
  N         1.6385665671        8.3269057525        5.2291606776
 Ga         1.6200518735       10.2072942786        5.7987445529
  N         1.6363548904       10.1923470389        7.7929742723
 Ga         1.6593278657        8.3413024054        8.4446323053
  N         1.6587597222        8.3406332839       10.4334984255
 Ga         1.6335181418       10.2008050476       11.0684546631
  N         1.6162348552       10.2088591597       13.0625615994
 Ga         1.6591039919        8.3398030048       13.6187543688
  N         1.6325017512        8.3236039543       15.5812738834
 Ga         1.8034004310       10.1012046991       16.4767166942
  N         3.2555811225        9.2719432338       17.6098386281
  N         9.6965159172        1.8440863528        2.6277244916
 Ga         9.6903765246        0.1009382971        3.2977519260
  N         9.6834994744       -0.0201354820        5.2577000803
 Ga         9.6925547676        1.8399377810        5.8737021297
  N         9.6863667217        1.8355934223        7.8496438145
 Ga         9.6894634281       -0.0334157557        8.4289493668
  N         9.6873028391       -0.0347919698       10.4258683883
 Ga         9.6874915054        1.8349966831       11.0221208107
  N         9.6876097415        1.8345598198       12.9954212903
 Ga         9.6884177964       -0.0346966047       13.6183940635
  N         9.6879942638       -0.0027426456       15.5821207622
 Ga         9.6876961343        1.8352539396       15.8607603104
  N         7.9718741319        4.5629555449        2.5278143637
 Ga         8.1862981096        2.7104143214        3.2955849793
  N         8.0788836325        2.7651887339        5.2574118301
 Ga         8.1046618387        4.6384793132        5.7977112431
  N         8.0889606835        4.6279712781        7.7954355725
 Ga         8.0700394560        2.7700839567        8.4353784607
  N         8.0682737535        2.7706721975       10.4295792485
 Ga         8.0933002849        4.6296009039       11.0664453733
  N         8.1111245107        4.6386682634       13.0612025775
 Ga         8.0685186358        2.7693872024       13.6170218989
  N         8.0949347690        2.7532389294       15.5799282889
 Ga         7.9225328509        4.5299438232       16.4774452036
  N         6.4536034162        7.4091530357        2.6031822756
 Ga         6.4675758655        5.6714319806        3.2881706734
  N         6.4707080535        5.5521807820        5.2500447159
 Ga         6.4616268100        7.4132773108        5.8554343946
  N         6.4682894127        7.4078176986        7.8348679296
 Ga         6.4713558188        5.5414467875        8.4312598185
  N         6.4714058052        5.5378801298       10.4266462645
 Ga         6.4712951662        7.4067084286       11.0218154723
  N         6.4716067574        7.4059175818       12.9946643242
 Ga         6.4718253000        5.5361612507       13.6175763239
  N         6.4715339386        5.5680914298       15.5815257602
 Ga         6.4718889703        7.4059297043       15.8611012128
  N         4.7602007079       10.1480915100        2.5316699079
 Ga         4.9091703897        8.2678356304        3.2310760983
  N         4.8518068354        8.3327569960        5.2189078169
 Ga         4.8916284910       10.2027777654        5.7815380733
  N         4.8729117321       10.1944574747        7.7857128989
 Ga         4.8539738442        8.3415734481        8.4303782614
  N         4.8520652014        8.3402142819       10.4254768857
 Ga         4.8777649500       10.1990548040       11.0649977683
  N         4.8950005725       10.2083889382       13.0604535608
 Ga         4.8530009388        8.3400033700       13.6181381063
  N         4.8788397533        8.3237869276       15.5807800137
 Ga         4.7074883239       10.1009894345       16.4766446795
  O         0.1242047262        4.0153932859       -0.4448438288
  H         0.4148194411        5.7787366285       -0.3381208716
  C         1.1260394875        3.2751669009       -1.1707950562
  H         2.1227291656        3.3543629374       -0.7061175948
  H         0.8602226348        2.2096376018       -1.2426985694
  H         1.1768888536        3.6917090108       -2.1865791080
 Ga         3.2315081699        5.5084445183        2.8905110036
  O         0.6461823868        6.7064379609       -0.0675234835
  H         0.0595123779        7.3093406376        1.6571708151
  C         2.0780257391        6.8056896966       -0.0107702077
  H         2.3878171455        7.7134528755       -0.5824873675
  H         2.4979609348        6.9855833477        1.0447000304
  H         2.5647779982        5.9385167463       -0.4798916874
