     212
 i =       16, E =     -8504.7338497390
  N         0.0759295035        1.9774798477        2.4832827287
 Ga         0.0782931642        0.0115339303        2.8272162181
  N         0.0794765424       -0.0269617889        5.0058405284
 Ga         0.0809824260        1.8008873869        5.7974878411
  N         0.0798955624        1.8144736654        7.7944980164
 Ga         0.0796740441       -0.0293866325        8.4456235093
  N         0.0797286439       -0.0308039234       10.4155968768
 Ga         0.0799959920        1.8086302268       11.0731819546
  N         0.0805770567        1.7895362534       13.0618884216
 Ga         0.0802876520       -0.0296574583       13.8784388760
  N         0.0801769676       -0.0298500483       16.0648887478
 Ga         0.0802813178        2.0191245867       16.4852882327
 Ga         0.0427025607        3.6858822484        1.3622384866
  N        -1.4095924813        4.5472138634        2.5217136858
 Ga        -1.6027393421        2.7069956062        3.2784620147
  N        -1.5307432524        2.7529555508        5.2527505064
 Ga        -1.5597088609        4.6184797093        5.8100437044
  N        -1.5387693891        4.6176559356        7.8002282047
 Ga        -1.5184612568        2.7575115923        8.4396164186
  N        -1.5173461734        2.7610989276       10.4291366386
 Ga        -1.5443094851        4.6195267728       11.0757749788
  N        -1.5601912268        4.6309095688       13.0635478943
 Ga        -1.5170609541        2.7610485301       13.6223524938
  N        -1.5481552479        2.7433797388       15.5785739353
 Ga        -1.3610089493        4.5155710188       16.4855763782
  N         0.0750865067        3.6802209213       17.6145452119
  N        -3.1337571182        7.5174156419        2.5209291796
 Ga        -3.1127271638        5.5174754799        2.8525294944
  N        -3.1361639868        5.5402700825        5.0191827062
 Ga        -3.1444333645        7.3606790777        5.8086680368
  N        -3.1361230892        7.3864493942        7.7958994406
 Ga        -3.1370213179        5.5392627985        8.4516736027
  N        -3.1365301246        5.5409425338       10.4190813147
 Ga        -3.1379597408        7.3793130550       11.0767493803
  N        -3.1359922554        7.3602741596       13.0639100876
 Ga        -3.1362895225        5.5401549388       13.8796141920
  N        -3.1362036837        5.5404466182       16.0652815182
 Ga        -3.1361425636        7.5897492185       16.4855264530
 Ga        -3.1512102250        9.2547307514        1.4627990672
  N        -4.6408768648       10.1218332035        2.5103067686
 Ga        -4.8488677431        8.2719125075        3.2822142437
  N        -4.7442421942        8.3256111755        5.2442881417
 Ga        -4.7737444823       10.1999694312        5.7961075008
  N        -4.7547052561       10.1876923408        7.7900568827
 Ga        -4.7366641414        8.3329662505        8.4400046778
  N        -4.7334170471        8.3322030191       10.4280069302
 Ga        -4.7599398707       10.1917032874       11.0737381228
  N        -4.7759291836       10.2015742671       13.0620148763
 Ga        -4.7335957445        8.3324198928       13.6230071165
  N        -4.7645263097        8.3143745064       15.5791173993
 Ga        -4.5779175544       10.0869951448       16.4852950892
  N        -3.1416079243        9.2515621213       17.6142158623
  N         3.2852233182        1.8308106167        2.6091244994
 Ga         3.2872743023        0.0882443218        3.2793298222
  N         3.2970448089       -0.0333092252        5.2426846933
 Ga         3.2877519519        1.8280282614        5.8709525537
  N         3.2956964939        1.8251258290        7.8439408618
 Ga         3.2935080416       -0.0404757088        8.4394203470
  N         3.2957814376       -0.0435545927       10.4272212415
 Ga         3.2960359008        1.8268198217       11.0270052514
  N         3.2971502986        1.8271556701       12.9920453223
 Ga         3.2966051834       -0.0411744186       13.6229099540
  N         3.2982258952       -0.0071681444       15.5783440816
 Ga         3.2985255600        1.8284309761       15.8634690045
  N         1.5670102593        4.5512117017        2.5119821409
 Ga         1.7567884756        2.7156538449        3.2615268137
  N         1.6884125799        2.7540385615        5.2433933926
 Ga         1.7181819929        4.6170373067        5.8083392722
  N         1.6978715608        4.6174383742        7.7990228391
 Ga         1.6777395958        2.7579906080        8.4398055665
  N         1.6767557493        2.7612942061       10.4284814427
 Ga         1.7039717941        4.6195177620       11.0745446532
  N         1.7210975640        4.6308342070       13.0623237318
 Ga         1.6785009455        2.7612503375       13.6224428062
  N         1.7088291033        2.7456330134       15.5779099121
 Ga         1.5163353512        4.5125487624       16.4874401325
  N         0.0725086130        7.3772081604        2.6942792219
 Ga         0.0831552533        5.5345819233        3.3378782963
  N         0.0793194117        5.5524567020        5.2715342204
 Ga         0.0801577936        7.3914730565        5.9114279301
  N         0.0795717126        7.3980187771        7.8643146519
 Ga         0.0798440390        5.5236076081        8.4489581543
  N         0.0797110996        5.5267732413       10.4332657858
 Ga         0.0798764191        7.3968388055       11.0308499015
  N         0.0808263462        7.3979595015       12.9945448374
 Ga         0.0808426352        5.5284197151       13.6234734299
  N         0.0822848155        5.5632433858       15.5787659123
 Ga         0.0820799913        7.3985125186       15.8641915411
  N        -1.6307341345       10.1101455834        2.5167202568
 Ga        -1.5010076797        8.2995749087        3.3306655358
  N        -1.5175615237        8.3178230270        5.2577847522
 Ga        -1.5050146258       10.2030813697        5.8089850423
  N        -1.5188203625       10.1860931650        7.7954722072
 Ga        -1.5418401311        8.3327431214        8.4507283735
  N        -1.5405044279        8.3323205870       10.4333218673
 Ga        -1.5138220694       10.1925212618       11.0751666185
  N        -1.4954670612       10.2017161935       13.0623960642
 Ga        -1.5380347895        8.3324493093       13.6237226951
  N        -1.5073367225        8.3164988432       15.5790004111
 Ga        -1.6997854894       10.0837878254       16.4873450484
  N         6.5107379050        1.9492297686        2.5305999154
 Ga         6.5117068845       -0.0244255887        2.8673300019
  N         6.5107391295       -0.0322577474        5.0175250282
 Ga         6.5105868914        1.8009200831        5.8037791151
  N         6.5114837336        1.8139212832        7.7950658103
 Ga         6.5121497946       -0.0300494255        8.4494846432
  N         6.5122679735       -0.0308367603       10.4170785400
 Ga         6.5120847890        1.8099118805       11.0724838499
  N         6.5123516812        1.7899248989       13.0610853217
 Ga         6.5122331380       -0.0292403086       13.8766121302
  N         6.5109922496       -0.0303837772       16.0665157613
 Ga         6.5125457564        2.0117763394       16.4831215938
 Ga         6.5140641618        3.6816968269        1.5127708242
  N         5.0085792828        4.5498433773        2.5251524226
 Ga         4.7932388728        2.6968452716        3.2917350132
  N         4.9013143970        2.7536860839        5.2512900177
 Ga         4.8788083756        4.6256402715        5.8029277500
  N         4.8939376998        4.6176539845        7.7949078273
 Ga         4.9119270451        2.7594402184        8.4390235584
  N         4.9153395823        2.7616885717       10.4271748304
 Ga         4.8895039775        4.6205686314       11.0726413356
  N         4.8726290582        4.6305857869       13.0612597180
 Ga         4.9152588854        2.7615520899       13.6222189497
  N         4.8907525884        2.7475114394       15.5809136331
 Ga         5.0643061802        4.5200330531       16.4830866927
  N         6.5072423430        3.6808907832       17.6263332564
  N         3.2889832944        7.5174118082        2.5082266275
  N         3.2950505023        5.5405929919        5.0202812031
 Ga         3.2992893160        7.3623851802        5.8048902997
  N         3.2935218097        7.3870724812        7.7930422389
 Ga         3.2961921193        5.5397135045        8.4496721488
  N         3.2961788418        5.5412358317       10.4177329814
 Ga         3.2978894121        7.3795571709       11.0753150550
  N         3.2967545037        7.3606383684       13.0629817222
 Ga         3.2967232027        5.5400309499       13.8765192901
  N         3.2950990732        5.5396574852       16.0665458207
 Ga         3.2967333147        7.5822948540       16.4840314217
 Ga         3.3213782833        9.2694976918        1.4500174947
  N         1.7876112998       10.1125303719        2.5104720571
 Ga         1.6559566201        8.3000460025        3.3115855829
  N         1.6729789100        8.3163170459        5.2442748353
 Ga         1.6619062072       10.1994234870        5.8057846915
  N         1.6772879400       10.1846099836        7.7932489154
 Ga         1.7003196031        8.3323779080        8.4508940399
  N         1.7001297521        8.3325489594       10.4332613295
 Ga         1.6735607171       10.1926198625       11.0752840558
  N         1.6563532515       10.2014098976       13.0629133835
 Ga         1.6993460626        8.3322220197       13.6235813791
  N         1.6745356011        8.3180119073       15.5823108112
 Ga         1.8486875565       10.0906669312       16.4840077132
  N         3.2916224340        9.2515878508       17.6268291811
  N         9.7353323482        1.8291688023        2.6180250208
 Ga         9.7316575406        0.0852823550        3.2822661155
  N         9.7244138012       -0.0346804881        5.2449626906
 Ga         9.7326587345        1.8257949478        5.8746237473
  N         9.7269362859        1.8245491475        7.8464036126
 Ga         9.7296785181       -0.0417726443        8.4380074305
  N         9.7279852151       -0.0440156616       10.4265032419
 Ga         9.7279353550        1.8262766825       11.0269518905
  N         9.7275268053        1.8261412622       12.9935783558
 Ga         9.7294084255       -0.0425023803       13.6227622622
  N         9.7294089177       -0.0129868287       15.5808464210
 Ga         9.7268099294        1.8265944790       15.8597830788
  N         8.0132492327        4.5496347345        2.5297848298
 Ga         8.2271926431        2.6959928165        3.2954952499
  N         8.1204793714        2.7534545468        5.2544281582
 Ga         8.1441678328        4.6259236152        5.8029352659
  N         8.1298363121        4.6179414150        7.7952291191
 Ga         8.1107370221        2.7598255281        8.4393979941
  N         8.1087074707        2.7616710563       10.4276701668
 Ga         8.1346625648        4.6204714023       11.0734620800
  N         8.1525050147        4.6307485039       13.0614837607
 Ga         8.1093391438        2.7620923341       13.6221266268
  N         8.1350294637        2.7476232530       15.5800687734
 Ga         7.9572943964        4.5180020495       16.4825339251
  N         6.5095237744        7.3966779699        2.6024328261
 Ga         6.5099205402        5.6574666031        3.2913581377
  N         6.5112494514        5.5425744149        5.2506067320
 Ga         6.5100394003        7.3989780863        5.8744151445
  N         6.5112268230        7.3977152975        7.8438941494
 Ga         6.5118278959        5.5292169934        8.4398019669
  N         6.5120992821        5.5279864821       10.4275826139
 Ga         6.5115607355        7.3974346187       11.0274223701
  N         6.5115514177        7.3972760089       12.9936600551
 Ga         6.5128389167        5.5277176873       13.6224074785
  N         6.5130031134        5.5573724166       15.5802871818
 Ga         6.5110260823        7.3963164776       15.8603208636
  N         4.8004623013       10.1237436779        2.5155840573
 Ga         5.0008169134        8.2702283272        3.2790951287
  N         4.9004213984        8.3251523906        5.2420388999
 Ga         4.9320396178       10.1993323198        5.7945220758
  N         4.9141238706       10.1878582886        7.7889528732
 Ga         4.8945149645        8.3330815595        8.4380121158
  N         4.8925026657        8.3322467901       10.4261469729
 Ga         4.9194107573       10.1913033561       11.0724756929
  N         4.9365201558       10.2012146908       13.0609041480
 Ga         4.8938294175        8.3330511566       13.6229908846
  N         4.9193645674        8.3183039049       15.5809865511
 Ga         4.7414934314       10.0887754898       16.4833865418
  O         0.0149205183        4.0948487105       -0.4345295665
  H        -0.1798428126        5.8757857257       -0.3456472560
  C         1.1321846167        3.6416289663       -1.2218523549
  H         2.0987241733        3.9467139663       -0.7882091635
  H         1.1285153318        2.5458393585       -1.3271759615
  H         1.0398903313        4.0863347255       -2.2230576910
 Ga         3.2675965841        5.5170559183        2.8589901799
  O        -0.1832685864        6.8620171282       -0.2031253350
  H         0.0292471437        7.3093479270        1.6569213377
  C         0.9443816252        7.3969403754       -0.9059662874
  H         0.9566182842        8.4819769438       -0.7296505607
  H         1.8959169413        6.9714346433       -0.5448129216
  H         0.8700761354        7.2261097515       -1.9911793454
