#p

 i =       37, E =     -8504.7318800858

0 1
  N         0.0115497856        1.9805201874        2.5420439518
 Ga         0.0256813925       -0.0035666337        2.9088454383
  N         0.0185016598       -0.0001612405        5.0567274110
 Ga         0.0105849794        1.8123905400        5.8364972318
  N         0.0114367033        1.8339090176        7.8274631077
 Ga         0.0131959127       -0.0197477948        8.4504572954
  N         0.0138030879       -0.0163490433       10.4268174753
 Ga         0.0123147690        1.8217708757       11.0749974015
  N         0.0139917354        1.8029911856       13.0746665865
 Ga         0.0134249943       -0.0263614706       13.8635942384
  N         0.0144386690       -0.0270576325       16.0731367133
 Ga         0.0141078075        1.9737842196       16.4362291252
 Ga        -0.0044698377        3.6665365755        1.5287676860
  N        -1.4689119847        4.5744006048        2.5327122299
 Ga        -1.6886357331        2.7041158076        3.3265649478
  N        -1.5960625651        2.7771710170        5.2836391806
 Ga        -1.6262670966        4.6480011155        5.8242311096
  N        -1.6017921603        4.6379466139        7.8156236630
 Ga        -1.5878647332        2.7785370405        8.4540080426
  N        -1.5840409232        2.7786788628       10.4476692601
 Ga        -1.6116516981        4.6373802790       11.0766683343
  N        -1.6270086731        4.6472638587       13.0758682776
 Ga        -1.5833931409        2.7760464579       13.6186618123
  N        -1.5998540635        2.7670268488       15.5960779948
 Ga        -1.4789322299        4.5614875630       16.4362486088
  N         0.0152916500        3.6992644918       17.5573370784
  N        -3.1918525113        7.5311607452        2.5196028492
 Ga        -3.1923240919        5.5791873765        2.8701745885
  N        -3.1983754759        5.5532243133        5.0307441106
 Ga        -3.2076659132        7.3891272571        5.7951094371
  N        -3.2003923007        7.4025849496        7.7955841392
 Ga        -3.2059190522        5.5594650482        8.4514781153
  N        -3.2039256729        5.5555160083       10.4260466964
 Ga        -3.2044008451        7.3966815711       11.0726341512
  N        -3.2025099984        7.3779903369       13.0661166092
 Ga        -3.2123630016        5.5616194411       13.8656185518
  N        -3.2138002498        5.5625441714       16.0739511020
 Ga        -3.2043808258        7.6176209875       16.4999215719
 Ga        -3.2311421993        9.3139895654        1.2723594850
  N        -4.7083641704       10.1579927840        2.5322410179
 Ga        -4.8875266444        8.3166785826        3.2417569462
  N        -4.8112518576        8.3437170480        5.2340875422
 Ga        -4.8291870108       10.2129776595        5.8007058719
  N        -4.8174904957       10.2040169622        7.8041951266
 Ga        -4.8040415208        8.3460264292        8.4310781507
  N        -4.7996405417        8.3452449303       10.4286664342
 Ga        -4.8250979524       10.2024978123       11.0726276106
  N        -4.8408270278       10.2136496110       13.0661287380
 Ga        -4.8007301377        8.3467012787       13.6266388932
  N        -4.8273026796        8.3322623808       15.5847552601
 Ga        -4.6349410811       10.0944323649       16.4981195098
  N        -3.1940205664        9.2749455901       17.6410165017
  N         3.2163155217        1.8476289572        2.6235657587
 Ga         3.2300941889        0.0719802892        3.2668642897
  N         3.2323815188       -0.0090315286        5.2549098272
 Ga         3.2300747049        1.8322021365        5.9002678933
  N         3.2312298948        1.8418531000        7.8738951067
 Ga         3.2290824123       -0.0296154805        8.4522788367
  N         3.2309798350       -0.0284064684       10.4448773528
 Ga         3.2309144371        1.8401892811       11.0387151462
  N         3.2289911983        1.8430682107       13.0113495740
 Ga         3.2297980424       -0.0298900472       13.6292368655
  N         3.2236435005        0.0082710794       15.5888271035
 Ga         3.2326796744        1.8428807430       15.8675697610
  N         1.4986491247        4.5551395185        2.5535150917
 Ga         1.7023446861        2.6970575343        3.3332813725
  N         1.6224470161        2.7680869415        5.2925058463
 Ga         1.6412580596        4.6315433317        5.8475898546
  N         1.6283142056        4.6335447482        7.8271566668
 Ga         1.6126656781        2.7725154074        8.4592298948
  N         1.6110071002        2.7771614279       10.4510124708
 Ga         1.6396549859        4.6378928709       11.0752750309
  N         1.6570887542        4.6474665766       13.0755256741
 Ga         1.6113785754        2.7764740965       13.6189936458
  N         1.6282264342        2.7673362844       15.5964021273
 Ga         1.5094091163        4.5630121658       16.4376553283
  N         0.0245392133        7.4329969153        2.6715225109
 Ga         0.0247026677        5.6036920448        3.3544541927
  N         0.0176345557        5.5791814373        5.2797754214
 Ga         0.0323188629        7.4374816306        5.8890060368
  N         0.0202251745        7.4189664031        7.8559495238
 Ga         0.0123635093        5.5520042224        8.4548509033
  N         0.0139096745        5.5450526082       10.4456321969
 Ga         0.0154848436        7.4146725035       11.0359996104
  N         0.0157330560        7.4104238788       13.0088158213
 Ga         0.0151510244        5.5431584030       13.6195350921
  N         0.0143593934        5.5640781942       15.5965840778
 Ga         0.0149404086        7.4157569629       15.8665674679
  N        -1.6905837751       10.1536652614        2.5269690417
 Ga        -1.5945259045        8.3615663551        3.3025023639
  N        -1.5771353663        8.3386790051        5.2502118751
 Ga        -1.5720691611       10.2228127988        5.8134561923
  N        -1.5873267575       10.2010454109        7.8115894248
 Ga        -1.6046391681        8.3472339513        8.4467314368
  N        -1.6036108979        8.3451012122       10.4388806458
 Ga        -1.5773215864       10.2057219546       11.0792756286
  N        -1.5601242386       10.2159830855       13.0733968704
 Ga        -1.6059977119        8.3477697561       13.6283923585
  N        -1.5775510898        8.3253042229       15.5881794926
 Ga        -1.7570546435       10.1039892656       16.4996054400
  N         6.4459028209        1.9730448953        2.5502441129
 Ga         6.4545088597       -0.0274329095        2.8857305221
  N         6.4385446935       -0.0023483005        5.0671191073
 Ga         6.4483533397        1.8132801394        5.8255102806
  N         6.4461392017        1.8352331347        7.8205973952
 Ga         6.4467981476       -0.0169134935        8.4524488233
  N         6.4472412064       -0.0151117872       10.4279054990
 Ga         6.4466128737        1.8232906545       11.0828787261
  N         6.4469464042        1.8045259410       13.0754209059
 Ga         6.4480211192       -0.0145211496       13.8863452948
  N         6.4472487811       -0.0128426838       16.0796505085
 Ga         6.4475806578        2.0316149674       16.5045590124
 Ga         6.4493369036        3.6975591302        1.5814273552
  N         4.9428692120        4.5554292048        2.5568106414
 Ga         4.7351864641        2.6850418415        3.3207806986
  N         4.8361173887        2.7676640495        5.2764450439
 Ga         4.8285756417        4.6344145379        5.8282143319
  N         4.8315024338        4.6321979942        7.8156662251
 Ga         4.8487374233        2.7754651428        8.4584413819
  N         4.8489774206        2.7772848964       10.4494086141
 Ga         4.8267835140        4.6382002367       11.0749561018
  N         4.8098043415        4.6460542603       13.0678997780
 Ga         4.8511328357        2.7782088371       13.6317477244
  N         4.8168635825        2.7659654154       15.5908981505
 Ga         5.0160572237        4.5286073234       16.5049503068
  N         6.4479324013        3.6907900127       17.6480408284
  N         3.2278310427        7.3810791682        2.6129737656
  N         3.2279743026        5.5325639002        5.0786721591
 Ga         3.2330391471        7.4033561172        5.7831046563
  N         3.2278295000        7.4049582870        7.7837983930
 Ga         3.2336696992        5.5628736812        8.4505423587
  N         3.2319355406        5.5579682005       10.4246914109
 Ga         3.2343748932        7.3976037339       11.0739265879
  N         3.2327438926        7.3783030262       13.0672921162
 Ga         3.2419713795        5.5618343552       13.8669607884
  N         3.2430673304        5.5623776924       16.0760371888
 Ga         3.2335476522        7.6212529870       16.5063074568
 Ga         3.5983805464       10.2489692489        0.7514515216
  N         1.7031022465       10.2164615323        2.4962185236
 Ga         1.6378391742        8.4375395706        3.1961597845
  N         1.6198538323        8.3406694430        5.1798939083
 Ga         1.5924709429       10.2122669399        5.7973407676
  N         1.6109818218       10.1976771691        7.8006927927
 Ga         1.6373574906        8.3502300946        8.4504881670
  N         1.6352490804        8.3466505650       10.4404939707
 Ga         1.6089684373       10.2080773521       11.0771736299
  N         1.5914939101       10.2159995326       13.0718932902
 Ga         1.6366668758        8.3481697215       13.6290007699
  N         1.6066671134        8.3253842859       15.5886335929
 Ga         1.7912979920       10.1013372307       16.5049028762
  N         3.2242818873        9.2752752089       17.6482519801
  N         9.6750549152        1.8241642755        2.6321405053
 Ga         9.6349397193        0.0473442406        3.3077360331
  N         9.6587159544       -0.0050106915        5.2790566265
 Ga         9.6592990866        1.8428665517        5.8973765060
  N         9.6585254333        1.8470857683        7.8702852032
 Ga         9.6606330607       -0.0276270104        8.4362469641
  N         9.6617710397       -0.0272082386       10.4344318359
 Ga         9.6607796998        1.8405597303       11.0324850895
  N         9.6643348792        1.8427283184       13.0066994646
 Ga         9.6642069009       -0.0288114940       13.6290475479
  N         9.6702173562        0.0080724090       15.5883943314
 Ga         9.6607914919        1.8418181006       15.8686079551
  N         7.9437723642        4.5771937965        2.5486556552
 Ga         8.1682134959        2.7023189701        3.3068899546
  N         8.0552333167        2.7745143997        5.2655424639
 Ga         8.0753922956        4.6486909271        5.8023357095
  N         8.0619485555        4.6352142885        7.8022690645
 Ga         8.0415758369        2.7808718379        8.4533525118
  N         8.0414844582        2.7785014736       10.4463013443
 Ga         8.0659486270        4.6373790384       11.0767093347
  N         8.0836560728        4.6459228978       13.0688405504
 Ga         8.0432909704        2.7776292302       13.6311648980
  N         8.0773764409        2.7659666468       15.5904966378
 Ga         7.8773300099        4.5280308623       16.5035865255
  N         6.4334396534        7.4469848568        2.5898644191
 Ga         6.4333034237        5.7171213649        3.2934235131
  N         6.4411824110        5.5676190804        5.2528221865
 Ga         6.4323573072        7.4383566824        5.8439268038
  N         6.4417317071        7.4177520309        7.8312760436
 Ga         6.4482969986        5.5545613931        8.4374200917
  N         6.4470992920        5.5459763709       10.4328179180
 Ga         6.4465629655        7.4139001003       11.0280198792
  N         6.4465757661        7.4122664507       12.9990815949
 Ga         6.4464560493        5.5457061217       13.6305914858
  N         6.4466107395        5.5765402727       15.5879032985
 Ga         6.4464530872        7.4129859191       15.8665243101
  N         4.7550169982       10.2264643086        2.4939653592
 Ga         4.9084179942        8.3834923858        3.1693068059
  N         4.8254963482        8.3544349043        5.1842521116
 Ga         4.8611991243       10.2129903596        5.7952628925
  N         4.8476238728       10.2025237738        7.7987649153
 Ga         4.8292126894        8.3479751722        8.4321170348
  N         4.8277550016        8.3458151893       10.4287132411
 Ga         4.8509063796       10.2040518616       11.0688571182
  N         4.8684740553       10.2136467302       13.0635683621
 Ga         4.8302708136        8.3471895338       13.6273740861
  N         4.8567444256        8.3327435665       15.5852812276
 Ga         4.6600272209       10.0923974629       16.5039959632
  O         0.3557196789        3.8496740991       -0.4633037092
  H         0.6459693595        4.8109015545       -0.5895470641
  C         1.4340815791        2.9677765439       -0.9401352263
  H         2.2572707668        2.9279495958       -0.2099241811
  H         0.9956427658        1.9716991498       -1.0574685443
  H         1.7789116964        3.3445486385       -1.9097782133
 Ga         3.2151550124        5.4454517051        3.0246487260
  O         1.1206081205        6.3964070963       -0.7623454069
  H        -0.0381223551        7.3962518428        1.6474045633
  C         2.3062905629        6.7053508524       -0.6348503315
  H         2.6372071557        7.7504266667       -0.8150930801
  H         3.2697212211        7.4951358731        1.4285685222
  H         3.0729849722        5.9630276278       -0.3339753990

