#p

i =       14, E =     -8456.4366114978

0 1
 N                  0.02029244    2.02860125    2.46917116
 Ga                 0.02051887    0.04802797    2.80307298
 N                  0.02079599    0.04722290    4.95912445
 Ga                 0.02046378    1.87535831    5.74794873
 N                  0.02079256    1.89270839    7.73905943
 Ga                 0.02065265    0.04757394    8.39321499
 N                  0.02072520    0.04744549   10.36159518
 Ga                 0.02045294    1.88626673   11.01939928
 N                  0.01980952    1.86722785   13.00731440
 Ga                 0.02029272    0.04750724   13.82391103
 N                  0.02057048    0.04799715   16.00637274
 Ga                 0.02010035    2.09628014   16.42711165
 Ga                 0.02027360    3.76174046    1.44468543
 N                 -1.48018425    4.62800170    2.46990859
 Ga                -1.68794525    2.77502821    3.23686981
 N                 -1.58881202    2.83161591    5.19615408
 Ga                -1.61204295    4.70349346    5.74783246
 N                 -1.59734376    4.69503865    7.73901969
 Ga                -1.57709414    2.83839721    8.38562078
 N                 -1.57553846    2.83922925   10.37320476
 Ga                -1.60214409    4.69808146   11.01821032
 N                 -1.62015184    4.70871751   13.00617208
 Ga                -1.57850552    2.83914168   13.56595156
 N                 -1.60894900    2.82411745   15.52190081
 Ga                -1.41610567    4.59108478   16.42919423
 N                  0.02590463    3.75834937   17.55499395
 N                 -3.19485733    7.59871081    2.46963647
 Ga                -3.19526847    5.61805864    2.80268641
 N                 -3.19539495    5.61758203    4.95871127
 Ga                -3.19520738    7.44569324    5.74801462
 N                 -3.19522906    7.46298320    7.73899246
 Ga                -3.19524874    5.61778004    8.39308461
 N                 -3.19515475    5.61771243   10.36159730
 Ga                -3.19501463    7.45710308   11.01770761
 N                 -3.19543555    7.43805824   13.00600506
 Ga                -3.19560390    5.61832377   13.82052338
 N                 -3.19431462    5.61816670   16.00845782
 Ga                -3.19548651    7.65960347   16.42656752
 Ga                -3.19411218    9.33171361    1.44619097
 N                 -4.69536967   10.19836086    2.46949178
 Ga                -4.90319287    8.34514053    3.23727884
 N                 -4.80453017    8.40215880    5.19646315
 Ga                -4.82837251   10.27410853    5.74798155
 N                 -4.81350682   10.26555336    7.73901731
 Ga                -4.79309408    8.40889903    8.38498602
 N                 -4.79152241    8.40989330   10.37297464
 Ga                -4.81874149   10.26883088   11.01800654
 N                 -4.83607008   10.27909191   13.00577863
 Ga                -4.79268610    8.41027249   13.56543670
 N                 -4.81758021    8.39632887   15.52402293
 Ga                -4.64064263   10.16635863   16.42605329
 N                 -3.18971168    9.32927174   17.57007156
 N                  3.23633983    1.90456817    2.55383332
 Ga                 3.23678461    0.16419961    3.23807520
 N                  3.23670470    0.04905229    5.19675690
 Ga                 3.23631236    1.90455471    5.82586041
 N                  3.23653412    1.90411266    7.79370087
 Ga                 3.23682843    0.03542080    8.38478958
 N                  3.23684434    0.03407659   10.37281907
 Ga                 3.23707696    1.90411318   10.97147836
 N                  3.23715059    1.90408682   12.93844410
 Ga                 3.23594757    0.03463636   13.56580354
 N                  3.23601138    0.06436245   15.52439553
 Ga                 3.23804034    1.90379848   15.80463301
 N                  1.52156914    4.62800634    2.46895778
 Ga                 1.72851095    2.77516600    3.23696397
 N                  1.62957211    2.83189377    5.19622266
 Ga                 1.65385933    4.70374094    5.74805730
 N                  1.63894074    4.69489231    7.73920555
 Ga                 1.61839914    2.83837565    8.38597198
 N                  1.61731069    2.83908914   10.37414632
 Ga                 1.64415010    4.69841946   11.01912805
 N                  1.66083477    4.70894008   13.00709644
 Ga                 1.61726433    2.83938294   13.56592312
 N                  1.64902281    2.82154918   15.52276380
 Ga                 1.46274241    4.59445890   16.42787553
 N                  0.02143155    7.47486965    2.55439746
 Ga                 0.02121977    5.73393326    3.23756852
 N                  0.02083237    5.61927753    5.19670890
 Ga                 0.02124275    7.47477881    5.82608105
 N                  0.02107534    7.47442721    7.79368493
 Ga                 0.02083029    5.60575788    8.38548723
 N                  0.02100058    5.60444314   10.37311554
 Ga                 0.02088796    7.47491133   10.97082556
 N                  0.01974852    7.47557789   12.93638250
 Ga                 0.01997058    5.60680739   13.56592856
 N                  0.01861693    5.64125437   15.52204789
 Ga                 0.01871678    7.47679569   15.80847437
 N                 -1.69445609   10.19854434    2.46973964
 Ga                -1.48635298    8.34493254    3.23766323
 N                 -1.58594167    8.40228214    5.19678361
 Ga                -1.56239824   10.27415034    5.74781972
 N                 -1.57732942   10.26566789    7.73884598
 Ga                -1.59712459    8.40876384    8.38489511
 N                 -1.59888003    8.40983704   10.37241879
 Ga                -1.57239226   10.26867625   11.01758047
 N                 -1.55549787   10.27884941   13.00588740
 Ga                -1.59840066    8.40995472   13.56596583
 N                 -1.57378118    8.39597267   15.52552886
 Ga                -1.74663358   10.16889886   16.42694121
 N                  6.45235687    2.02883792    2.46925577
 Ga                 6.45309540    0.04810901    2.80216131
 N                  6.45294055    0.04749896    4.95873846
 Ga                 6.45250821    1.87555123    5.74764966
 N                  6.45262382    1.89281886    7.73873766
 Ga                 6.45277509    0.04758763    8.39285721
 N                  6.45269248    0.04752618   10.36129818
 Ga                 6.45263962    1.88681432   11.01772569
 N                  6.45230514    1.86788425   13.00615931
 Ga                 6.45280965    0.04790209   13.82045299
 N                  6.45351225    0.04769806   16.00834462
 Ga                 6.45155780    2.08945897   16.42659176
 Ga                 6.45268191    3.76216441    1.44586783
 N                  4.95157457    4.62838151    2.46912348
 Ga                 4.74391902    2.77517303    3.23710781
 N                  4.84314456    2.83196639    5.19618818
 Ga                 4.81972643    4.70399515    5.74767582
 N                  4.83468213    4.69530522    7.73892054
 Ga                 4.85465689    2.83859307    8.38486420
 N                  4.85618494    2.83952229   10.37278604
 Ga                 4.82958914    4.69848808   11.01795870
 N                  4.81227318    4.70885760   13.00587372
 Ga                 4.85515728    2.84015373   13.56580487
 N                  4.82947832    2.82661120   15.52452894
 Ga                 5.00650864    4.59704312   16.42617305
 N                  6.45689861    3.75904722   17.56989109
 N                  3.23716243    7.59893170    2.46861851
 Ga                 3.23631433    5.61859356    2.80021922
 N                  3.23664369    5.61799576    4.95872211
 Ga                 3.23693787    7.44597719    5.74807165
 N                  3.23713033    7.46331085    7.73926754
 Ga                 3.23658964    5.61807269    8.39323029
 N                  3.23672560    5.61799466   10.36165573
 Ga                 3.23686257    7.45720511   11.01890516
 N                  3.23630030    7.43818465   13.00669306
 Ga                 3.23657983    5.61890196   13.82299921
 N                  3.23646443    5.61910537   16.00775642
 Ga                 3.23662911    7.66823803   16.42888767
 Ga                 6.39323160    9.26003539    1.39735362
 N                  1.73653261   10.19879389    2.46946420
 Ga                 1.52957295    8.34530997    3.23710326
 N                  1.62777736    8.40253843    5.19648739
 Ga                 1.60362139   10.27454508    5.74767245
 N                  1.61853709   10.26584922    7.73898934
 Ga                 1.63914045    8.40912491    8.38542890
 N                  1.64057204    8.40998951   10.37300503
 Ga                 1.61361124   10.26893900   11.01789643
 N                  1.59570755   10.27973545   13.00577413
 Ga                 1.63818109    8.41020250   13.56582587
 N                  1.60812838    8.39444719   15.52164859
 Ga                 1.80123930   10.16080923   16.43101325
 N                  3.24203088    9.32912009   17.55780233
 N                  9.66844798    1.90489005    2.55377393
 Ga                 9.66870690    0.16437606    3.23780290
 N                  9.66879871    0.04941439    5.19676439
 Ga                 9.66876766    1.90462809    5.82614871
 N                  9.66906837    1.90431250    7.79400366
 Ga                 9.66898362    0.03556940    8.38528229
 N                  9.66911158    0.03427022   10.37291154
 Ga                 9.66882512    1.90460797   10.97065633
 N                  9.66756038    1.90549236   12.93632206
 Ga                 9.66794723    0.03674193   13.56617485
 N                  9.66655548    0.07093230   15.52198090
 Ga                 9.66568610    1.90606251   15.80973901
 N                  7.95342783    4.62837161    2.46962221
 Ga                 8.16093751    2.77517084    3.23736475
 N                  8.06185703    2.83214168    5.19649870
 Ga                 8.08580126    4.70408747    5.74761308
 N                  8.07101318    4.69542585    7.73882579
 Ga                 8.05070412    2.83860342    8.38486362
 N                  8.04901723    2.83956617   10.37250917
 Ga                 8.07606831    4.69824573   11.01780890
 N                  8.09279126    4.70871036   13.00630839
 Ga                 8.04956506    2.83964516   13.56611686
 N                  8.07346092    2.82600289   15.52588910
 Ga                 7.90020677    4.59847795   16.42719071
 N                  6.45310065    7.47539731    2.55385156
 Ga                 6.45254266    5.73481833    3.23753880
 N                  6.45276050    5.61980065    5.19655253
 Ga                 6.45282488    7.47524988    5.82588736
 N                  6.45306228    7.47484807    7.79378205
 Ga                 6.45285409    5.60615574    8.38477599
 N                  6.45296327    5.60470664   10.37283469
 Ga                 6.45352457    7.47482591   10.97130408
 N                  6.45365609    7.47485301   12.93813067
 Ga                 6.45225510    5.60576684   13.56589250
 N                  6.45171369    5.63512353   15.52469106
 Ga                 6.45448493    7.47480032   15.80522067
 N                  4.73751026   10.19903118    2.46963340
 Ga                 4.94495710    8.34542554    3.23693931
 N                  4.84607033    8.40266345    5.19642340
 Ga                 4.86957977   10.27430136    5.74784091
 N                  4.85484767   10.26562914    7.73914025
 Ga                 4.83487342    8.40919979    8.38563143
 N                  4.83377306    8.40983799   10.37386567
 Ga                 4.85990117   10.26904576   11.01897857
 N                  4.87657173   10.27961617   13.00678196
 Ga                 4.83387130    8.41027685   13.56602564
 N                  4.86532346    8.39200780   15.52272965
 Ga                 4.67757956   10.16422512   16.42915012

