       3
 i =        1, E =       -17.2194778703
  O        -0.0000010479       -0.0000002173        0.1059643008
  H         0.0000002232        0.7729930956       -0.4845799511
  H         0.0000008237       -0.7729928783       -0.4845802831
       3
 i =        2, E =       -17.2195217045
  O        -0.0000010954       -0.0000001550        0.1094452457
  H         0.0000005275        0.7659401038       -0.4863824687
  H         0.0000006132       -0.7659399424       -0.4863828463
       3
 i =        3, E =       -17.2195219562
  O        -0.0000010539       -0.0000001068        0.1094175903
  H         0.0000009404        0.7655045719       -0.4864371624
  H         0.0000002126       -0.7655044539       -0.4864375430
       3
 i =        4, E =       -17.2195219556
  O        -0.0000010539       -0.0000001068        0.1094175903
  H         0.0000009404        0.7655045719       -0.4864371624
  H         0.0000002126       -0.7655044539       -0.4864375430
