#p

 i =      133, E =     -8504.7365007362

0 1
  N        -0.0010057718        2.0545814921        2.5073058811
 Ga         0.0204216314        0.0870936277        2.8486529001
  N        -0.0104277839        0.0609229102        5.0159032263
 Ga        -0.0058092092        1.8891879716        5.7995033707
  N        -0.0074272364        1.9004965450        7.8005094059
 Ga        -0.0029865613        0.0551157461        8.4401828341
  N        -0.0049028068        0.0548001721       10.4178670696
 Ga        -0.0050487600        1.8935812539       11.0708467248
  N        -0.0050612821        1.8755655600       13.0665175863
 Ga        -0.0043827512        0.0552714681       13.8681900725
  N        -0.0038654946        0.0562940153       16.0712424760
 Ga        -0.0062423181        2.0962087818       16.4808153511
 Ga         0.0334288261        3.7362632877        1.3723213692
  N        -1.4741885490        4.6336764522        2.4743273912
 Ga        -1.6795178860        2.7992430506        3.2665907831
  N        -1.6161281456        2.8445719490        5.2473109965
 Ga        -1.6445445704        4.7081137310        5.8116437471
  N        -1.6246204396        4.7047358250        7.8054727079
 Ga        -1.6024469714        2.8456946720        8.4412950930
  N        -1.6024655323        2.8473350804       10.4351962159
 Ga        -1.6309768549        4.7063209792       11.0727617626
  N        -1.6448283546        4.7159525122       13.0665330164
 Ga        -1.6023461245        2.8471496721       13.6206485489
  N        -1.6304098180        2.8347018008       15.5830189605
 Ga        -1.4512701162        4.6058665324       16.4795820853
  N        -0.0037827548        3.7662325060       17.6106673660
  N        -3.2171701063        7.5958027798        2.4980388448
 Ga        -3.1951762760        5.6267196961        2.8429822489
  N        -3.2179607217        5.6205251063        5.0148526192
 Ga        -3.2297671317        7.4504719061        5.7879644152
  N        -3.2207247420        7.4731871616        7.7875193538
 Ga        -3.2239410545        5.6283091717        8.4439040758
  N        -3.2223386153        5.6273659580       10.4189205449
 Ga        -3.2237839844        7.4668515347       11.0684984568
  N        -3.2207767964        7.4470715213       13.0635960492
 Ga        -3.2193720895        5.6271663843       13.8670469562
  N        -3.2190820133        5.6282312097       16.0705009403
 Ga        -3.2223435891        7.6711943665       16.4834532702
 Ga        -3.2567876609        9.3665193752        1.2813576142
  N        -4.7292689392       10.2130079807        2.5068928654
 Ga        -4.9085646338        8.3673118221        3.2399454091
  N        -4.8325669142        8.4086111348        5.2254323851
 Ga        -4.8531838098       10.2828198537        5.7773609956
  N        -4.8387801294       10.2737511811        7.7840751733
 Ga        -4.8222775063        8.4183707237        8.4255146503
  N        -4.8185442623        8.4179968605       10.4243995117
 Ga        -4.8438683137       10.2758177372       11.0660904217
  N        -4.8602015551       10.2862219460       13.0626329906
 Ga        -4.8169139971        8.4183704445       13.6216846957
  N        -4.8440354094        8.4040480918       15.5834003519
 Ga        -4.6693198579       10.1771510776       16.4847237659
  N        -3.2216645225        9.3416587173       17.6224773400
  N         3.1917881000        1.9247143875        2.5993234626
 Ga         3.2050615905        0.1560874088        3.2449314367
  N         3.2127951024        0.0613641058        5.2304710452
 Ga         3.2076486068        1.9161599410        5.8656922368
  N         3.2124352843        1.9137586667        7.8464939226
 Ga         3.2082411061        0.0463281285        8.4291339668
  N         3.2105094022        0.0419637583       10.4273253744
 Ga         3.2103733275        1.9096591695       11.0281188916
  N         3.2105387027        1.9112145580       13.0018432367
 Ga         3.2115485967        0.0419539714       13.6217051167
  N         3.2111258198        0.0739713790       15.5839298199
 Ga         3.2101217636        1.9123115952       15.8607098352
  N         1.4705207150        4.6410908544        2.5215627502
 Ga         1.6840935791        2.8087524206        3.2973620577
  N         1.6008040633        2.8476084028        5.2628948439
 Ga         1.6504873899        4.7219716150        5.8236110551
  N         1.6001247148        4.7005175521        7.8284826513
 Ga         1.5918958938        2.8439990085        8.4417399310
  N         1.5919960855        2.8440079396       10.4384245733
 Ga         1.6190006815        4.7056341580       11.0695683594
  N         1.6346620747        4.7160463298       13.0659960822
 Ga         1.5916609980        2.8481023343       13.6216959006
  N         1.6198796626        2.8338084130       15.5858992533
 Ga         1.4414236923        4.6073616088       16.4797143701
  N        -0.0154092166        7.4755882969        2.6927374578
 Ga         0.0016156219        5.6247978879        3.3404815271
  N        -0.0094092464        5.6405893209        5.2695350940
 Ga        -0.0095310862        7.4821811947        5.9045847215
  N        -0.0051399529        7.4863985010        7.8644685071
 Ga        -0.0078186479        5.6129508092        8.4543101742
  N        -0.0084903085        5.6159468805       10.4449499595
 Ga        -0.0081940626        7.4846401177       11.0346225859
  N        -0.0058903064        7.4840417103       13.0059483591
 Ga        -0.0045853361        5.6129272797       13.6217461446
  N        -0.0059791980        5.6461770537       15.5835595920
 Ga        -0.0047368091        7.4847940452       15.8584756491
  N        -1.7092163606       10.2127110789        2.5066052677
 Ga        -1.6263715170        8.4169926565        3.2990700714
  N        -1.6011231931        8.4068442710        5.2419008123
 Ga        -1.5942525694       10.2908079414        5.7947049025
  N        -1.6040710149       10.2732112398        7.7913455874
 Ga        -1.6281342777        8.4200011563        8.4408668786
  N        -1.6258868308        8.4187188807       10.4333013225
 Ga        -1.5998778794       10.2781774048       11.0693266805
  N        -1.5809785736       10.2865276130       13.0643000246
 Ga        -1.6252039714        8.4188541470       13.6239756697
  N        -1.5982491738        8.4038747577       15.5867756451
 Ga        -1.7745752466       10.1771609741       16.4844870652
  N         6.4268402130        2.0393662695        2.5403529053
 Ga         6.4058107784        0.0564749834        2.8820563057
  N         6.4322559646        0.0592473715        5.0243979911
 Ga         6.4203183254        1.8940904294        5.7990807662
  N         6.4252636918        1.9013289943        7.7959972952
 Ga         6.4245371518        0.0573527971        8.4444117342
  N         6.4268317208        0.0556371888       10.4191933921
 Ga         6.4276047835        1.8950794572       11.0712188919
  N         6.4282528597        1.8746618905       13.0670466558
 Ga         6.4282474252        0.0535921315       13.8690377627
  N         6.4285596755        0.0544877525       16.0721373142
 Ga         6.4257176074        2.0891290303       16.4739558759
 Ga         6.4638489542        3.7434322942        1.5157268414
  N         4.9206926032        4.6396151218        2.4193771083
 Ga         4.6906410928        2.8076023848        3.2786770979
  N         4.8176301925        2.8514882940        5.2386371720
 Ga         4.7754881772        4.7254993498        5.8181471302
  N         4.8205832746        4.6978476393        7.8240671616
 Ga         4.8281571837        2.8449866220        8.4457449029
  N         4.8298183471        2.8442053684       10.4398645035
 Ga         4.8040824816        4.7069815869       11.0679317325
  N         4.7873582117        4.7164876743       13.0655366152
 Ga         4.8301987035        2.8472572829       13.6180322132
  N         4.8023132532        2.8334872477       15.5837257234
 Ga         4.9720673448        4.6102108673       16.4727165329
  N         6.4284769623        3.7686831530       17.5993597765
  N         3.2012153632        7.6020144259        2.4239113763
  N         3.2118774332        5.6328998316        5.1581258311
 Ga         3.2176720414        7.4289293038        5.8332538309
  N         3.2089233301        7.4888351946        7.8296321360
 Ga         3.2110626095        5.6259782278        8.4417546545
  N         3.2110877188        5.6272421182       10.4237986267
 Ga         3.2127053012        7.4653794545       11.0716903156
  N         3.2116788950        7.4472844143       13.0669628436
 Ga         3.2102061488        5.6273626853       13.8670662002
  N         3.2105448459        5.6280164695       16.0726046031
 Ga         3.2103971884        7.6726400948       16.4857144659
 Ga         3.2335724597        9.3883038661        1.4987718103
  N         1.7089187482       10.1954263797        2.5282032378
 Ga         1.5859259918        8.3646715037        3.3265119587
  N         1.5964276871        8.4026372500        5.2492392690
 Ga         1.5768470312       10.2860550209        5.8092104304
  N         1.5915574138       10.2726629760        7.7994805019
 Ga         1.6127267816        8.4218957280        8.4590614359
  N         1.6109866576        8.4202103325       10.4468687942
 Ga         1.5875190313       10.2797034887       11.0749915746
  N         1.5722384911       10.2871034025       13.0678204433
 Ga         1.6155179063        8.4183743428       13.6240150572
  N         1.5871197981        8.4038051832       15.5851631732
 Ga         1.7678917809       10.1740479375       16.4871562219
  N         3.2158113850        9.3408855089       17.6256453540
  N         9.6528062898        1.9198756166        2.6117643576
 Ga         9.6522079705        0.1860397939        3.3022031305
  N         9.6415264567        0.0565387346        5.2570670529
 Ga         9.6510496711        1.9187126868        5.8805440818
  N         9.6425298826        1.9126051367        7.8532610270
 Ga         9.6449989752        0.0440550360        8.4381588886
  N         9.6430580182        0.0421291204       10.4323022769
 Ga         9.6424046354        1.9123417232       11.0252671816
  N         9.6432104203        1.9120559412       12.9988321785
 Ga         9.6438602415        0.0432082835       13.6238271950
  N         9.6423249419        0.0756175233       15.5850402056
 Ga         9.6448884146        1.9126780189       15.8640724283
  N         7.9282966315        4.6341863477        2.5276347274
 Ga         8.1491559161        2.7847163471        3.3061944881
  N         8.0380838991        2.8408767034        5.2601440604
 Ga         8.0549958323        4.7185767776        5.7931932537
  N         8.0440257974        4.7064805822        7.7926084316
 Ga         8.0232853152        2.8490661776        8.4344226950
  N         8.0234627911        2.8477543874       10.4302702059
 Ga         8.0503506941        4.7064323256       11.0704239168
  N         8.0681530020        4.7158292673       13.0661510255
 Ga         8.0251342313        2.8469187349       13.6205102074
  N         8.0516705490        2.8330223394       15.5870274347
 Ga         7.8815267363        4.6118025766       16.4725389453
  N         6.4250396901        7.4841290119        2.5833134134
 Ga         6.4018529582        5.7460751441        3.2715974911
  N         6.4197431985        5.6230228969        5.2323174592
 Ga         6.4257211808        7.4827940759        5.8570171252
  N         6.4244494264        7.4830642264        7.8374486860
 Ga         6.4288980686        5.6172490746        8.4427476546
  N         6.4297644830        5.6162874606       10.4373207528
 Ga         6.4299915758        7.4845472788       11.0290197133
  N         6.4283659545        7.4840003705       13.0020886385
 Ga         6.4274306643        5.6136474202       13.6186795704
  N         6.4264307877        5.6459138815       15.5838915980
 Ga         6.4280651778        7.4856886499       15.8617531934
  N         4.7128977102       10.2095898762        2.5269500827
 Ga         4.9151954286        8.3332674894        3.2776611844
  N         4.8069848365        8.4108205913        5.2357152227
 Ga         4.8492698624       10.2806174020        5.7975370263
  N         4.8292162005       10.2734427014        7.7950679208
 Ga         4.8132844146        8.4205601033        8.4462970540
  N         4.8116482016        8.4194108775       10.4392775768
 Ga         4.8352406399       10.2779246134       11.0720857509
  N         4.8509771920       10.2869945235       13.0667122829
 Ga         4.8078653835        8.4182846800       13.6236988135
  N         4.8354493239        8.4024236058       15.5866239795
 Ga         4.6579237375       10.1769895741       16.4864503521
  O         0.7385016416        3.8535720665       -0.3612233489
  H        -0.0122082131        7.4608030333        1.6662532961
  C         1.1513145126        2.5887491282       -0.9293123912
  H         1.8464918088        2.0479871133       -0.2662650225
  H         0.2825762764        1.9441417293       -1.1315774048
  H         1.6539522420        2.7995444010       -1.8829616549
 Ga         3.1640837207        5.5896635822        2.2488641410
  O         2.8183085573        5.4819313922        0.1325652266
  H         2.0508204469        4.8308205351       -0.0621703220
  C         3.9005521504        5.2553036941       -0.8021271922
  H         3.5505608072        5.4159296390       -1.8290614173
  H         4.6922569518        5.9757688956       -0.5664051435
  H         4.3010609336        4.2322494147       -0.7055657215

