     144
 i =      138, E =     -6088.4475987722
 Ga         0.0003599157       -0.0024872606       -0.5878941627
  N         0.0033468491        1.8715151930        0.5663320020
 Ga         0.0028175005        1.8391489829        2.5962599135
  N        -0.0000260161       -0.0036977786        3.2298684147
 Ga         0.0005544423       -0.0032073765        5.2207266636
  N         0.0031998871        1.8716093329        5.8074796901
 Ga         0.0027126653        1.8701339214        7.8059983997
  N        -0.0000310521       -0.0030412828        8.4089666903
 Ga        -0.0001863379       -0.0009635463       10.4063706895
  N         0.0026600529        1.8713314640       11.0105967563
 Ga         0.0021615604        1.8777714344       13.0039384963
  N        -0.0010525864        0.0080214866       13.6083211799
 Ga        -0.0035858356        0.0174781664       15.6113377462
  N         0.0019837846        1.8835867226       16.2651720916
 Ga         0.0073500401        1.8958292177       18.3862423692
  N         0.0032014099        0.0009263901       18.6597099922
 Ga        -1.6180905378        2.8027830304        0.2806602890
  N        -1.6216558546        4.6718676660        0.5661002520
 Ga        -1.5929040044        4.6876376398        2.5957418363
  N        -1.6194475338        2.8020427933        3.1879476099
 Ga        -1.6189365089        2.8027254897        5.1987110546
  N        -1.6192582628        4.6728396406        5.8075145165
 Ga        -1.6184846913        4.6731195175        7.8061575175
  N        -1.6199785391        2.8024036161        8.4106751149
 Ga        -1.6195825340        2.8038186397       10.4059846776
  N        -1.6129387543        4.6743952434       11.0137004788
 Ga        -1.6084169728        4.6739757588       13.0089917818
  N        -1.6176275743        2.8053473000       13.6231494460
 Ga        -1.6192387899        2.8047357419       15.6315649435
  N        -1.6218597190        4.6823613543       16.2140714755
 Ga        -1.6163078314        4.6709298527       18.2959157060
  N        -1.6229585831        2.8110460425       18.7472595418
 Ga        -3.2389914752        5.6090071719        0.2801851168
  N        -3.2331079583        7.4783363862        0.5661284857
 Ga        -3.2616481322        7.4931684191        2.5959945030
  N        -3.2395875431        5.6076927343        3.1885078816
 Ga        -3.2392689910        5.6084232139        5.1993344014
  N        -3.2334901362        7.4778957002        5.8088109580
 Ga        -3.2347527461        7.4777343264        7.8079237142
  N        -3.2388926528        5.6073583876        8.4151909653
 Ga        -3.2384359263        5.6087026514       10.4125843614
  N        -3.2370066175        7.4826567448       11.0129745475
 Ga        -3.2366859229        7.4867755460       13.0085150708
  N        -3.2361736952        5.6074664052       13.5898078757
 Ga        -3.2362415138        5.6098575198       15.5824051767
  N        -3.2434936340        7.4819336239       16.1556515655
 Ga        -3.2515819997        7.4897625139       18.2057330064
  N        -3.2511981324        5.6128505977       18.5966158823
 Ga         3.2460463730       -0.0039551379        0.2807822047
  N         3.2453824997        1.8672328452        0.5652247800
 Ga         3.2720727293        1.8818155128        2.5980313008
  N         3.2451829411       -0.0035730564        3.1879813317
 Ga         3.2456293077       -0.0030583824        5.1986635529
  N         3.2462022423        1.8670218033        5.8072407950
 Ga         3.2469553382        1.8667358332        7.8060949818
  N         3.2461860123       -0.0034498178        8.4125434616
 Ga         3.2461322235       -0.0018169944       10.4089571019
  N         3.2464218816        1.8697791110       11.0146162927
 Ga         3.2416018663        1.8690005303       13.0114848462
  N         3.2464015081       -0.0010658812       13.6235934338
 Ga         3.2548144118        0.0000427167       15.6273163071
  N         3.2301383455        1.8811678019       16.2027498990
 Ga         3.2335412994        1.8854881145       18.2700850050
  N         3.2379050117       -0.0078524385       18.5750372779
 Ga         1.6247859779        2.8032783560        0.2808880693
  N         1.6334517917        4.6724369065        0.5662858770
 Ga         1.6044746383        4.6876778674        2.5958475979
  N         1.6257084936        2.8019790899        3.1881457592
 Ga         1.6261888504        2.8026787910        5.1989831211
  N         1.6319844819        4.6728855082        5.8076090549
 Ga         1.6304447401        4.6731658434        7.8063763207
  N         1.6261348576        2.8023147716        8.4105207016
 Ga         1.6257624509        2.8038068428       10.4058788859
  N         1.6244284744        4.6746078557       11.0129471958
 Ga         1.6177322825        4.6746664898       13.0081043662
  N         1.6215434934        2.8060784254       13.6207338146
 Ga         1.6205504648        2.8059860434       15.6283011165
  N         1.6325479790        4.6822517058       16.2145387614
 Ga         1.6424389156        4.6697096944       18.2963722902
  N         1.6347373091        2.8089940788       18.7470912290
 Ga         0.0066643251        5.6089152872       -0.5858530101
  N         0.0094831224        7.4838634283        0.5665739854
 Ga         0.0089631344        7.4507427998        2.5960366188
  N         0.0060949254        5.6071840947        3.2287256439
 Ga         0.0066752256        5.6081343234        5.2193466680
  N         0.0094175118        7.4827910485        5.8067585947
 Ga         0.0090270845        7.4810220456        7.8052406163
  N         0.0061927098        5.6082927916        8.4073488888
 Ga         0.0060414213        5.6108309802       10.4039301161
  N         0.0089993101        7.4801810667       11.0166297540
 Ga         0.0080886232        7.4813578313       13.0148917832
  N         0.0046610190        5.6150770997       13.6367894766
 Ga         0.0047869770        5.6254425526       15.6480965316
  N         0.0071336916        7.4946030989       16.2293119412
 Ga         0.0158097544        7.4707889083       18.2976898758
  N         0.0113652002        5.5876278270       18.6572605396
 Ga         6.4912584752       -0.0035190116        0.2806505999
  N         6.4971490735        1.8677347726        0.5651983035
 Ga         6.4701023787        1.8819579264        2.5980615960
  N         6.4915161662       -0.0035268842        3.1880738298
 Ga         6.4921643465       -0.0030653509        5.1987124085
  N         6.4971626960        1.8671127034        5.8070925718
 Ga         6.4955960788        1.8668018350        7.8058055937
  N         6.4907640511       -0.0033809233        8.4123313042
 Ga         6.4908664251       -0.0018399824       10.4087996552
  N         6.4963202180        1.8694329783       11.0150901414
 Ga         6.4994583158        1.8682104459       13.0118333383
  N         6.4880804611       -0.0012950263       13.6252348432
 Ga         6.4792177118       -0.0012964552       15.6297679221
  N         6.5099758565        1.8776879743       16.2083514331
 Ga         6.5195338337        1.8847748584       18.2785424424
  N         6.5057874148       -0.0075254093       18.5843589060
 Ga         4.8718886317        2.8030690909       -0.5592522613
  N         4.8748054221        4.6765903427        0.5652578816
 Ga         4.8743125595        4.6459735463        2.5979411077
  N         4.8713950448        2.8020896228        3.2291756909
 Ga         4.8719328375        2.8029456083        5.2206956172
  N         4.8747409910        4.6772288777        5.8096002744
 Ga         4.8743088968        4.6750478192        7.8094479481
  N         4.8716674540        2.8006879438        8.4096242500
 Ga         4.8718824160        2.8004471101       10.4076526982
  N         4.8743855866        4.6712069879       11.0116143871
 Ga         4.8736228345        4.6669256978       13.0066339350
  N         4.8711976497        2.7897110569       13.6142573335
 Ga         4.8693081675        2.7836608828       15.6155308935
  N         4.8720388339        4.6748231011       16.1152639112
 Ga         4.8800311036        4.6845679817       18.1512468569
  N         4.8743642558        2.8108535565       18.5642561410
 Ga         3.2518081902        5.6084575131        0.2802501474
  N         3.2511595927        7.4777172806        0.5660508737
 Ga         3.2792974570        7.4929850438        2.5959838548
  N         3.2519864864        5.6075110280        3.1884272358
 Ga         3.2526588944        5.6082768683        5.1992300083
  N         3.2524072042        7.4777797230        5.8086970147
 Ga         3.2527503744        7.4776386133        7.8077299609
  N         3.2514450957        5.6073945329        8.4153121431
 Ga         3.2510437249        5.6088906220       10.4127497930
  N         3.2546568010        7.4827144793       11.0134860111
 Ga         3.2528029920        7.4862607042       13.0094425285
  N         3.2464722781        5.6068348430       13.5888541558
 Ga         3.2432713517        5.6106397862       15.5812662131
  N         3.2593627723        7.4811798773       16.1580754053
 Ga         3.2785372372        7.4893352307       18.2082183067
  N         3.2721351316        5.6133766367       18.6016273711
