#p

 i =      221, E =     -8480.5605712532

0 1
  N        -0.0362172736        2.0289933997        2.5469347775
 Ga        -0.0308421538        0.0531234237        2.8780100636
  N        -0.0342677108        0.0477096894        5.0295740120
 Ga        -0.0356449525        1.8747382662        5.8150019334
  N        -0.0340044469        1.8923902771        7.8096527584
 Ga        -0.0329303701        0.0463542461        8.4534835095
  N        -0.0328346312        0.0470573043       10.4265698444
 Ga        -0.0335678123        1.8872002700       11.0764755338
  N        -0.0328459501        1.8683424182       13.0701431498
 Ga        -0.0337165423        0.0479790674       13.8738045153
  N        -0.0338112691        0.0473248164       16.0743345435
 Ga        -0.0322697074        2.0884677664       16.4860812760
 Ga        -0.0318021594        3.7320129983        1.5222250624
  N        -1.5174484793        4.6134006381        2.5128097039
 Ga        -1.7377843247        2.7710942987        3.3131185266
  N        -1.6458584408        2.8308642620        5.2722560000
 Ga        -1.6648728698        4.7041600720        5.8116589308
  N        -1.6513600347        4.6955368623        7.8078115263
 Ga        -1.6327250057        2.8386964424        8.4471394916
  N        -1.6309366917        2.8392305938       10.4398417505
 Ga        -1.6564378935        4.6986227402       11.0762112278
  N        -1.6726267887        4.7087328941       13.0698096363
 Ga        -1.6298786743        2.8401192767       13.6264093938
  N        -1.6581023180        2.8237075784       15.5888093456
 Ga        -1.4805753026        4.5982338565       16.4860721250
  N        -0.0391717436        3.7574644123       17.6192544453
  N        -3.2477251295        7.5935834908        2.5265413289
 Ga        -3.2407503709        5.6155727012        2.8505424888
  N        -3.2444174578        5.6136456396        5.0187427543
 Ga        -3.2483205305        7.4444762354        5.8000895203
  N        -3.2497337115        7.4627746497        7.7993857251
 Ga        -3.2501192723        5.6186121191        8.4518006000
  N        -3.2497288374        5.6185538835       10.4254835124
 Ga        -3.2497234669        7.4582389228       11.0752071230
  N        -3.2489625368        7.4389120135       13.0692236923
 Ga        -3.2490038653        5.6185500841       13.8723401429
  N        -3.2492767084        5.6181312244       16.0739808205
 Ga        -3.2480427768        7.6573313397       16.4841729687
 Ga        -3.2460238635        9.3238527744        1.4482525685
  N        -4.7532566127       10.2021810170        2.5223169821
 Ga        -4.9484146694        8.3495460849        3.2831839243
  N        -4.8575490926        8.4021886652        5.2521811806
 Ga        -4.8804608727       10.2731278833        5.8040118860
  N        -4.8669518458       10.2654965720        7.8015605293
 Ga        -4.8471082558        8.4083459594        8.4416920460
  N        -4.8465538422        8.4095751389       10.4358133662
 Ga        -4.8720866570       10.2679551088       11.0762677171
  N        -4.8888416899       10.2789635247       13.0700261260
 Ga        -4.8456245486        8.4103231002       13.6259365140
  N        -4.8734508811        8.3934283387       15.5887945346
 Ga        -4.6989283079       10.1698742022       16.4842962456
  N        -3.2561148474        9.3280358729       17.6160857016
  N         3.1674720486        1.9087925076        2.6042195242
 Ga         3.1803561107        0.1538772073        3.2844357365
  N         3.1825773843        0.0520704678        5.2518474161
 Ga         3.1847928316        1.9011429695        5.8931097720
  N         3.1840153104        1.9032479393        7.8630144859
 Ga         3.1825407930        0.0343505148        8.4464638588
  N         3.1825636825        0.0345197388       10.4385474054
 Ga         3.1823857900        1.9043986964       11.0323920550
  N         3.1836496382        1.9049203046       13.0038815414
 Ga         3.1836858965        0.0353925632       13.6258275457
  N         3.1860366586        0.0674903522       15.5876043628
 Ga         3.1840317377        1.9055319494       15.8679487315
  N         1.4699558512        4.6249201933        2.5313515293
 Ga         1.6666715022        2.7826338872        3.3275093876
  N         1.5790108815        2.8303684154        5.2791549608
 Ga         1.5969417688        4.7058947621        5.8146763741
  N         1.5845306960        4.6960989864        7.8090363793
 Ga         1.5648333647        2.8382592795        8.4470446148
  N         1.5635211291        2.8395245398       10.4393695613
 Ga         1.5897544696        4.6988414995       11.0760073220
  N         1.6068249791        4.7086453715       13.0692020979
 Ga         1.5646503965        2.8400849935       13.6261448928
  N         1.5934232606        2.8254020832       15.5873213164
 Ga         1.4102752715        4.5949373885       16.4869391893
  N        -0.0348685961        7.4714708203        2.6196387413
 Ga        -0.0247296046        5.7263143657        3.2979661358
  N        -0.0335337471        5.6202870370        5.2631499498
 Ga        -0.0359085270        7.4742682833        5.8849883016
  N        -0.0337609627        7.4753384387        7.8583218803
 Ga        -0.0342381265        5.6077553197        8.4469294135
  N        -0.0334137768        5.6057780654       10.4391906953
 Ga        -0.0342637535        7.4755169520       11.0318219616
  N        -0.0329544119        7.4757649173       13.0032571530
 Ga        -0.0326192095        5.6063551472       13.6260623428
  N        -0.0309189397        5.6382037650       15.5873046703
 Ga        -0.0320675810        7.4759333889       15.8672807557
  N        -1.7486388553       10.2008389311        2.5274727616
 Ga        -1.5489408104        8.3483992807        3.2874968060
  N        -1.6397752718        8.4028649849        5.2553126006
 Ga        -1.6179638726       10.2739692647        5.8037339182
  N        -1.6331402092       10.2655416112        7.8021145788
 Ga        -1.6523801271        8.4087863900        8.4426119016
  N        -1.6531304944        8.4099790123       10.4362222344
 Ga        -1.6266170361       10.2685609663       11.0752359275
  N        -1.6092069914       10.2789219885       13.0687714117
 Ga        -1.6515838810        8.4104112204       13.6255072850
  N        -1.6233437027        8.3957907016       15.5870095676
 Ga        -1.8043474885       10.1655623087       16.4852084080
  N         6.3949435564        2.0249311497        2.5302164108
 Ga         6.3933376333        0.0447641944        2.8648439623
  N         6.3995619739        0.0469383832        5.0281703854
 Ga         6.3970207229        1.8746400654        5.8061251057
  N         6.3976241044        1.8939508231        7.8034126878
 Ga         6.3972578844        0.0476527872        8.4511872295
  N         6.3987018756        0.0478428184       10.4251961008
 Ga         6.3988592350        1.8873170708       11.0761938528
  N         6.3993396586        1.8682514528       13.0700783620
 Ga         6.3991040844        0.0472690755       13.8721593896
  N         6.3987676011        0.0466896917       16.0743283391
 Ga         6.4004670192        2.0835119525       16.4820915901
 Ga         6.4036269297        3.7608512532        1.4843644088
  N         4.8923055362        4.6265931695        2.5287162746
 Ga         4.6889362196        2.7738196916        3.2884504968
  N         4.7857873146        2.8294112661        5.2530410985
 Ga         4.7683461225        4.7014799358        5.8067515257
  N         4.7812429260        4.6942113353        7.8026246918
 Ga         4.8013058568        2.8385718313        8.4476577313
  N         4.8019405716        2.8396348078       10.4395271648
 Ga         4.7768837636        4.6987880235       11.0763154252
  N         4.7597406498        4.7087764756       13.0701716692
 Ga         4.8025860555        2.8400523548       13.6259387932
  N         4.7767865729        2.8243777537       15.5898249358
 Ga         4.9465200765        4.6014070992       16.4821122511
  N         6.3922479882        3.7577965680       17.6163649953
  N         3.1817207963        7.5966895322        2.5395070076
 Ga         3.1739556851        5.6142383333        2.8916775461
  N         3.1832898108        5.6181972177        5.0319758065
 Ga         3.1833883195        7.4480997404        5.8101481834
  N         3.1828744293        7.4638209175        7.8051594896
 Ga         3.1835863221        5.6181240722        8.4534968362
  N         3.1837247732        5.6183439061       10.4264129314
 Ga         3.1829083298        7.4581966007       11.0760169456
  N         3.1832206478        7.4391035589       13.0694942883
 Ga         3.1821687281        5.6189722333       13.8727837727
  N         3.1820321226        5.6183392365       16.0744244589
 Ga         3.1839105225        7.6581676554       16.4859227067
 Ga         3.1810635629        9.3307066964        1.5100371007
  N         1.6802787303       10.1982167124        2.5354291005
 Ga         1.4710741924        8.3453056342        3.3001469638
  N         1.5731397062        8.4021724495        5.2622008075
 Ga         1.5484005461       10.2743201394        5.8099827004
  N         1.5646280343       10.2654533067        7.8060965656
 Ga         1.5836277434        8.4089109463        8.4458220611
  N         1.5856318803        8.4096113432       10.4383638360
 Ga         1.5597179964       10.2686819833       11.0758429735
  N         1.5433669967       10.2789541141       13.0694027663
 Ga         1.5862609099        8.4104771779       13.6262883009
  N         1.5596236265        8.3948269816       15.5890513455
 Ga         1.7350291090       10.1688694419       16.4862137138
  N         3.1768931801        9.3275324179       17.6217037090
  N         9.6167194558        1.9055192391        2.6217333116
 Ga         9.6133456476        0.1630798473        3.3005602980
  N         9.6144579752        0.0485496153        5.2628812537
 Ga         9.6125581543        1.9041979319        5.8905924823
  N         9.6133432258        1.9035680724        7.8618972817
 Ga         9.6141418200        0.0354357792        8.4471272578
  N         9.6150149285        0.0346804503       10.4390841561
 Ga         9.6140189592        1.9046956265       11.0322905292
  N         9.6149343262        1.9048796038       13.0041249861
 Ga         9.6155367454        0.0352156201       13.6260764221
  N         9.6171313490        0.0665739198       15.5876858427
 Ga         9.6155948979        1.9049462498       15.8668625674
  N         7.9029542190        4.6264557946        2.5302568136
 Ga         8.1028778073        2.7748080278        3.2949209487
  N         8.0067539194        2.8303333371        5.2590819147
 Ga         8.0344385010        4.7032665237        5.8030801967
  N         8.0170824265        4.6950437372        7.8010615404
 Ga         7.9956564502        2.8389015260        8.4449330796
  N         7.9950776653        2.8398279015       10.4378133693
 Ga         8.0215931617        4.6988769448       11.0751106910
  N         8.0389317076        4.7085897433       13.0688563541
 Ga         7.9965673280        2.8401524441       13.6253712022
  N         8.0236662544        2.8261122364       15.5878106091
 Ga         7.8474936179        4.5972714307       16.4826861383
  N         6.4006849712        7.4745365928        2.6156216186
 Ga         6.4003802050        5.7302086232        3.2904901790
  N         6.3997704612        5.6180990419        5.2555999048
 Ga         6.4019986056        7.4745420490        5.8803369686
  N         6.3992011917        7.4745139737        7.8542855594
 Ga         6.3995014038        5.6065981014        8.4421400720
  N         6.3990209156        5.6054820719       10.4357545688
 Ga         6.3989767673        7.4748893707       11.0307588580
  N         6.3994753162        7.4751311158       13.0030367480
 Ga         6.3998120309        5.6059246496       13.6255454373
  N         6.4018498207        5.6364092049       15.5882095207
 Ga         6.3993475616        7.4756817704       15.8672019483
  N         4.6837951101       10.1992377684        2.5361284891
 Ga         4.8934676589        8.3449448187        3.2973094873
  N         4.7930434298        8.4021207320        5.2599384547
 Ga         4.8153865677       10.2736702099        5.8096951967
  N         4.8001089727       10.2653447752        7.8053474779
 Ga         4.7819933417        8.4082877514        8.4445569111
  N         4.7799305506        8.4097330729       10.4372291666
 Ga         4.8058499843       10.2686440423       11.0760005971
  N         4.8228211891       10.2788704323       13.0690659909
 Ga         4.7804869329        8.4104539564       13.6257180835
  N         4.8082476539        8.3958293035       15.5872423724
 Ga         4.6274139292       10.1656774935       16.4866616011
  O         1.0552866767        3.4664904192       -0.2648368710
  H         1.8147359733        4.0138784599        0.0348661088
  C         1.5611554996        2.0841627734       -0.4520836628
  H         2.2127365235        1.8093301758        0.3942742908
  H         0.6797159194        1.4367147348       -0.4824156402
  H         2.0927181074        2.0549216310       -1.4097919926

