       3
 i =        1, E =        -6.6828282399
  C         1.6947015246        4.6600759609       20.2879485648
  H         1.6037187121        5.6918367208       20.6826599668
  H         0.7927153655        4.1619984512       20.6965356685
       3
 i =        2, E =        -6.6831590667
  C         1.7057623622        4.6541411628       20.2800689280
  H         1.5995540846        5.6973663169       20.6865705644
  H         0.7858291093        4.1624015057       20.7004949798
       3
 i =        3, E =        -6.6831683909
  C         1.7046364812        4.6547543259       20.2817239340
  H         1.6020699647        5.7007454744       20.6857107111
  H         0.7844379940        4.1584151613       20.6997030087
       3
 i =        4, E =        -6.6831685648
  C         1.7050214649        4.6545553538       20.2820865905
  H         1.6018616037        5.7008143459       20.6855294727
  H         0.7842634249        4.1585506389       20.6995217148
       3
 i =        5, E =        -6.6831685648
  C         1.7050214649        4.6545553538       20.2820865905
  H         1.6018616037        5.7008143459       20.6855294727
  H         0.7842634249        4.1585506389       20.6995217148
