#p

DDDD

0 1
 Ga                 0.00000000    0.00000000    0.00000000
 N                  0.00000000    1.87384136    0.61943069
 Ga                 0.00000000    1.87384136    2.59300000
 N                  0.00000000    0.00000000    3.21243069
 Ga                 0.00000000    0.00000000    5.18600000
 N                  0.00000000    1.87384136    5.80543069
 Ga                 0.00000000    1.87384136    7.77900000
 N                  0.00000000    0.00000000    8.39843069
 Ga                 0.00000000    0.00000000   10.37200000
 N                  0.00000000    1.87384136   10.99143069
 Ga                 0.00000000    1.87384136   12.96500000
 N                  0.00000000    0.00000000   13.58443069
 Ga                -1.62279422    2.81076204    0.00000000
 N                 -1.62279422    4.68460341    0.61943069
 Ga                -1.62279422    4.68460341    2.59300000
 N                 -1.62279422    2.81076204    3.21243069
 Ga                -1.62279422    2.81076204    5.18600000
 N                 -1.62279422    4.68460341    5.80543069
 Ga                -1.62279422    4.68460341    7.77900000
 N                 -1.62279422    2.81076204    8.39843069
 Ga                -1.62279422    2.81076204   10.37200000
 N                 -1.62279422    4.68460341   10.99143069
 Ga                -1.62279422    4.68460341   12.96500000
 N                 -1.62279422    2.81076204   13.58443069
 Ga                -3.24558845    5.62152409    0.00000000
 N                 -3.24558845    7.49536545    0.61943069
 Ga                -3.24558845    7.49536545    2.59300000
 N                 -3.24558845    5.62152409    3.21243069
 Ga                -3.24558845    5.62152409    5.18600000
 N                 -3.24558845    7.49536545    5.80543069
 Ga                -3.24558845    7.49536545    7.77900000
 N                 -3.24558845    5.62152409    8.39843069
 Ga                -3.24558845    5.62152409   10.37200000
 N                 -3.24558845    7.49536545   10.99143069
 Ga                -3.24558845    7.49536545   12.96500000
 N                 -3.24558845    5.62152409   13.58443069
 Ga                -4.86838267    8.43228613    0.00000000
 N                 -4.86838267   10.30612749    0.61943069
 Ga                -4.86838267   10.30612749    2.59300000
 N                 -4.86838267    8.43228613    3.21243069
 Ga                -4.86838267    8.43228613    5.18600000
 N                 -4.86838267   10.30612749    5.80543069
 Ga                -4.86838267   10.30612749    7.77900000
 N                 -4.86838267    8.43228613    8.39843069
 Ga                -4.86838267    8.43228613   10.37200000
 N                 -4.86838267   10.30612749   10.99143069
 Ga                -4.86838267   10.30612749   12.96500000
 N                 -4.86838267    8.43228613   13.58443069
 Ga                 3.24558845    0.00000000    0.00000000
 N                  3.24558845    1.87384136    0.61943069
 Ga                 3.24558845    1.87384136    2.59300000
 N                  3.24558845    0.00000000    3.21243069
 Ga                 3.24558845    0.00000000    5.18600000
 N                  3.24558845    1.87384136    5.80543069
 Ga                 3.24558845    1.87384136    7.77900000
 N                  3.24558845    0.00000000    8.39843069
 Ga                 3.24558845    0.00000000   10.37200000
 N                  3.24558845    1.87384136   10.99143069
 Ga                 3.24558845    1.87384136   12.96500000
 N                  3.24558845    0.00000000   13.58443069
 Ga                 1.62279422    2.81076204    0.00000000
 N                  1.62279422    4.68460341    0.61943069
 Ga                 1.62279422    4.68460341    2.59300000
 N                  1.62279422    2.81076204    3.21243069
 Ga                 1.62279422    2.81076204    5.18600000
 N                  1.62279422    4.68460341    5.80543069
 Ga                 1.62279422    4.68460341    7.77900000
 N                  1.62279422    2.81076204    8.39843069
 Ga                 1.62279422    2.81076204   10.37200000
 N                  1.62279422    4.68460341   10.99143069
 Ga                 1.62279422    4.68460341   12.96500000
 N                  1.62279422    2.81076204   13.58443069
 Ga                 0.00000000    5.62152409    0.00000000
 N                  0.00000000    7.49536545    0.61943069
 Ga                 0.00000000    7.49536545    2.59300000
 N                  0.00000000    5.62152409    3.21243069
 Ga                 0.00000000    5.62152409    5.18600000
 N                  0.00000000    7.49536545    5.80543069
 Ga                 0.00000000    7.49536545    7.77900000
 N                  0.00000000    5.62152409    8.39843069
 Ga                 0.00000000    5.62152409   10.37200000
 N                  0.00000000    7.49536545   10.99143069
 Ga                 0.00000000    7.49536545   12.96500000
 N                  0.00000000    5.62152409   13.58443069
 Ga                -1.62279422    8.43228613    0.00000000
 N                 -1.62279422   10.30612749    0.61943069
 Ga                -1.62279422   10.30612749    2.59300000
 N                 -1.62279422    8.43228613    3.21243069
 Ga                -1.62279422    8.43228613    5.18600000
 N                 -1.62279422   10.30612749    5.80543069
 Ga                -1.62279422   10.30612749    7.77900000
 N                 -1.62279422    8.43228613    8.39843069
 Ga                -1.62279422    8.43228613   10.37200000
 N                 -1.62279422   10.30612749   10.99143069
 Ga                -1.62279422   10.30612749   12.96500000
 N                 -1.62279422    8.43228613   13.58443069
 Ga                 6.49117689    0.00000000    0.00000000
 N                  6.49117689    1.87384136    0.61943069
 Ga                 6.49117689    1.87384136    2.59300000
 N                  6.49117689    0.00000000    3.21243069
 Ga                 6.49117689    0.00000000    5.18600000
 N                  6.49117689    1.87384136    5.80543069
 Ga                 6.49117689    1.87384136    7.77900000
 N                  6.49117689    0.00000000    8.39843069
 Ga                 6.49117689    0.00000000   10.37200000
 N                  6.49117689    1.87384136   10.99143069
 Ga                 6.49117689    1.87384136   12.96500000
 N                  6.49117689    0.00000000   13.58443069
 Ga                 4.86838267    2.81076204    0.00000000
 N                  4.86838267    4.68460341    0.61943069
 Ga                 4.86838267    4.68460341    2.59300000
 N                  4.86838267    2.81076204    3.21243069
 Ga                 4.86838267    2.81076204    5.18600000
 N                  4.86838267    4.68460341    5.80543069
 Ga                 4.86838267    4.68460341    7.77900000
 N                  4.86838267    2.81076204    8.39843069
 Ga                 4.86838267    2.81076204   10.37200000
 N                  4.86838267    4.68460341   10.99143069
 Ga                 4.86838267    4.68460341   12.96500000
 N                  4.86838267    2.81076204   13.58443069
 Ga                 3.24558845    5.62152409    0.00000000
 N                  3.24558845    7.49536545    0.61943069
 Ga                 3.24558845    7.49536545    2.59300000
 N                  3.24558845    5.62152409    3.21243069
 Ga                 3.24558845    5.62152409    5.18600000
 N                  3.24558845    7.49536545    5.80543069
 Ga                 3.24558845    7.49536545    7.77900000
 N                  3.24558845    5.62152409    8.39843069
 Ga                 3.24558845    5.62152409   10.37200000
 N                  3.24558845    7.49536545   10.99143069
 Ga                 3.24558845    7.49536545   12.96500000
 N                  3.24558845    5.62152409   13.58443069
 Ga                 1.62279422    8.43228613    0.00000000
 N                  1.62279422   10.30612749    0.61943069
 Ga                 1.62279422   10.30612749    2.59300000
 N                  1.62279422    8.43228613    3.21243069
 Ga                 1.62279422    8.43228613    5.18600000
 N                  1.62279422   10.30612749    5.80543069
 Ga                 1.62279422   10.30612749    7.77900000
 N                  1.62279422    8.43228613    8.39843069
 Ga                 1.62279422    8.43228613   10.37200000
 N                  1.62279422   10.30612749   10.99143069
 Ga                 1.62279422   10.30612749   12.96500000
 N                  1.62279422    8.43228613   13.58443069
 Ga                 9.73676534    0.00000000    0.00000000
 N                  9.73676534    1.87384136    0.61943069
 Ga                 9.73676534    1.87384136    2.59300000
 N                  9.73676534    0.00000000    3.21243069
 Ga                 9.73676534    0.00000000    5.18600000
 N                  9.73676534    1.87384136    5.80543069
 Ga                 9.73676534    1.87384136    7.77900000
 N                  9.73676534    0.00000000    8.39843069
 Ga                 9.73676534    0.00000000   10.37200000
 N                  9.73676534    1.87384136   10.99143069
 Ga                 9.73676534    1.87384136   12.96500000
 N                  9.73676534    0.00000000   13.58443069
 Ga                 8.11397111    2.81076204    0.00000000
 N                  8.11397111    4.68460341    0.61943069
 Ga                 8.11397111    4.68460341    2.59300000
 N                  8.11397111    2.81076204    3.21243069
 Ga                 8.11397111    2.81076204    5.18600000
 N                  8.11397111    4.68460341    5.80543069
 Ga                 8.11397111    4.68460341    7.77900000
 N                  8.11397111    2.81076204    8.39843069
 Ga                 8.11397111    2.81076204   10.37200000
 N                  8.11397111    4.68460341   10.99143069
 Ga                 8.11397111    4.68460341   12.96500000
 N                  8.11397111    2.81076204   13.58443069
 Ga                 6.49117689    5.62152409    0.00000000
 N                  6.49117689    7.49536545    0.61943069
 Ga                 6.49117689    7.49536545    2.59300000
 N                  6.49117689    5.62152409    3.21243069
 Ga                 6.49117689    5.62152409    5.18600000
 N                  6.49117689    7.49536545    5.80543069
 Ga                 6.49117689    7.49536545    7.77900000
 N                  6.49117689    5.62152409    8.39843069
 Ga                 6.49117689    5.62152409   10.37200000
 N                  6.49117689    7.49536545   10.99143069
 Ga                 6.49117689    7.49536545   12.96500000
 N                  6.49117689    5.62152409   13.58443069
 Ga                 4.86838267    8.43228613    0.00000000
 N                  4.86838267   10.30612749    0.61943069
 Ga                 4.86838267   10.30612749    2.59300000
 N                  4.86838267    8.43228613    3.21243069
 Ga                 4.86838267    8.43228613    5.18600000
 N                  4.86838267   10.30612749    5.80543069
 Ga                 4.86838267   10.30612749    7.77900000
 N                  4.86838267    8.43228613    8.39843069
 Ga                 4.86838267    8.43228613   10.37200000
 N                  4.86838267   10.30612749   10.99143069
 Ga                 4.86838267   10.30612749   12.96500000
 N                  4.86838267    8.43228613   13.58443069
 H                  4.86838267    8.43228613   -1.55000000
 H                  1.62279422    8.43228613   -1.55000000
 H                 -1.62279422    8.43228613   -1.55000000
 H                 -4.86838267    8.43228605   -1.55000000
 H                  6.49117689    5.62152409   -1.55000000
 H                  3.24558845    5.62152409   -1.55000000
 H                  0.00000000    5.62152409   -1.55000000
 H                 -3.24558835    5.62152401   -1.55000000
 H                  8.11397111    2.81076204   -1.55000000
 H                  4.86838267    2.81076204   -1.55000000
 H                  1.62279422    2.81076204   -1.55000000
 H                 -1.62279412    2.81076196   -1.55000000
 H                  0.00000010   -0.00000008   -1.55000000
 H                  3.24558855   -0.00000008   -1.55000000
 H                  6.49117699   -0.00000008   -1.55000000
 H                  9.73676544   -0.00000008   -1.55000000

