%mem=4GB
%chk=GaN.chk
# pbepbe/3-21g/auto

Title Card Required

0 2
 Ga                 0.00000000    0.00000000    0.00000000
 N                  0.00000000    1.83941956    0.64410120
 Ga                 0.00000000    1.83941956    2.59300000
 N                  0.00000000    0.00000000    3.23710120
 Ga                 0.00000000    0.00000000    5.18600000
 N                  0.00000000    1.83941956    5.83010120
 Ga                 0.00000000    1.83941956    7.77900000
 N                  0.00000000    0.00000000    8.42310120
 Ga                 0.00000000    0.00000000   10.37200000
 N                  0.00000000    1.83941956   11.01610120
 Ga                 0.00000000    1.83941956   12.96500000
 N                  0.00000000    0.00000000   13.60910120
 Ga                 0.00000000    0.00000000   15.55800000
 N                  0.00000000    1.83941956   16.20210120
 Ga                 0.00000000    1.83941956   18.15100000
 Ga                -1.59300000    2.75915694    0.00000000
 N                 -1.59303186    4.59863168    0.64410120
 Ga                -1.59303186    4.59863168    2.59300000
 N                 -1.59300000    2.75915694    3.23710120
 Ga                -1.59300000    2.75915694    5.18600000
 N                 -1.59303186    4.59863168    5.83010120
 Ga                -1.59303186    4.59863168    7.77900000
 N                 -1.59300000    2.75915694    8.42310120
 Ga                -1.59300000    2.75915694   10.37200000
 N                 -1.59303186    4.59863168   11.01610120
 Ga                -1.59303186    4.59863168   12.96500000
 N                 -1.59300000    2.75915694   13.60910120
 Ga                -1.59300000    2.75915694   15.55800000
 N                 -1.59303186    4.59863168   16.20210120
 Ga                -1.59303186    4.59863168   18.15100000
 Ga                -3.18600000    5.51831387    0.00000000
 N                 -3.18601593    7.35776103    0.64410120
 Ga                -3.18601593    7.35776103    2.59300000
 N                 -3.18600000    5.51831387    3.23710120
 Ga                -3.18600000    5.51831387    5.18600000
 N                 -3.18601593    7.35776103    5.83010120
 Ga                -3.18601593    7.35776103    7.77900000
 N                 -3.18600000    5.51831387    8.42310120
 Ga                -3.18600000    5.51831387   10.37200000
 N                 -3.18601593    7.35776103   11.01610120
 Ga                -3.18601593    7.35776103   12.96500000
 N                 -3.18600000    5.51831387   13.60910120
 Ga                -3.18600000    5.51831387   15.55800000
 N                 -3.18601593    7.35776103   16.20210120
 Ga                -3.18601593    7.35776103   18.15100000
 Ga                 3.18600000    0.00000000    0.00000000
 N                  3.18596814    1.83941956    0.64410120
 Ga                 3.18596814    1.83941956    2.59300000
 N                  3.18600000    0.00000000    3.23710120
 Ga                 3.18600000    0.00000000    5.18600000
 N                  3.18596814    1.83941956    5.83010120
 Ga                 3.18596814    1.83941956    7.77900000
 N                  3.18600000    0.00000000    8.42310120
 Ga                 3.18600000    0.00000000   10.37200000
 N                  3.18596814    1.83941956   11.01610120
 Ga                 3.18596814    1.83941956   12.96500000
 N                  3.18600000    0.00000000   13.60910120
 Ga                 3.18600000    0.00000000   15.55800000
 N                  3.18596814    1.83941956   16.20210120
 Ga                 3.18596814    1.83941956   18.15100000
 Ga                 1.59300000    2.75915694    0.00000000
 N                  1.59293628    4.59863168    0.64410120
 Ga                 1.59293628    4.59863168    2.59300000
 N                  1.59300000    2.75915694    3.23710120
 Ga                 1.59300000    2.75915694    5.18600000
 N                  1.59293628    4.59863168    5.83010120
 Ga                 1.59293628    4.59863168    7.77900000
 N                  1.59300000    2.75915694    8.42310120
 Ga                 1.59300000    2.75915694   10.37200000
 N                  1.59293628    4.59863168   11.01610120
 Ga                 1.59293628    4.59863168   12.96500000
 N                  1.59300000    2.75915694   13.60910120
 Ga                 1.59300000    2.75915694   15.55800000
 N                  1.59293628    4.59863168   16.20210120
 Ga                 1.59293628    4.59863168   18.15100000
 Ga                 0.00000000    5.51831387    0.00000000
 N                 -0.00004779    7.35776103    0.64410120
 Ga                -0.00004779    7.35776103    2.59300000
 N                  0.00000000    5.51831387    3.23710120
 Ga                 0.00000000    5.51831387    5.18600000
 N                 -0.00004779    7.35776103    5.83010120
 Ga                -0.00004779    7.35776103    7.77900000
 N                  0.00000000    5.51831387    8.42310120
 Ga                 0.00000000    5.51831387   10.37200000
 N                 -0.00004779    7.35776103   11.01610120
 Ga                -0.00004779    7.35776103   12.96500000
 N                  0.00000000    5.51831387   13.60910120
 Ga                 0.00000000    5.51831387   15.55800000
 N                 -0.00004779    7.35776103   16.20210120
 Ga                -0.00004779    7.35776103   18.15100000
 Ga                 6.37200000    0.00000000    0.00000000
 N                  6.37203186    1.83941956    0.64410120
 Ga                 6.37203186    1.83941956    2.59300000
 N                  6.37200000    0.00000000    3.23710120
 Ga                 6.37200000    0.00000000    5.18600000
 N                  6.37203186    1.83941956    5.83010120
 Ga                 6.37203186    1.83941956    7.77900000
 N                  6.37200000    0.00000000    8.42310120
 Ga                 6.37200000    0.00000000   10.37200000
 N                  6.37203186    1.83941956   11.01610120
 Ga                 6.37203186    1.83941956   12.96500000
 N                  6.37200000    0.00000000   13.60910120
 Ga                 6.37200000    0.00000000   15.55800000
 N                  6.37203186    1.83941956   16.20210120
 Ga                 6.37203186    1.83941956   18.15100000
 Ga                 4.77900000    2.75915694    0.00000000
 N                  4.77900000    4.59863168    0.64410120
 Ga                 4.77900000    4.59863168    2.59300000
 N                  4.77900000    2.75915694    3.23710120
 Ga                 4.77900000    2.75915694    5.18600000
 N                  4.77900000    4.59863168    5.83010120
 Ga                 4.77900000    4.59863168    7.77900000
 N                  4.77900000    2.75915694    8.42310120
 Ga                 4.77900000    2.75915694   10.37200000
 N                  4.77900000    4.59863168   11.01610120
 Ga                 4.77900000    4.59863168   12.96500000
 N                  4.77900000    2.75915694   13.60910120
 Ga                 4.77900000    2.75915694   15.55800000
 N                  4.77900000    4.59863168   16.20210120
 Ga                 4.77900000    4.59863168   18.15100000
 Ga                 3.18600000    5.51831387    0.00000000
 N                  3.18601593    7.35776103    0.64410120
 Ga                 3.18601593    7.35776103    2.59300000
 N                  3.18600000    5.51831387    3.23710120
 Ga                 3.18600000    5.51831387    5.18600000
 N                  3.18601593    7.35776103    5.83010120
 Ga                 3.18601593    7.35776103    7.77900000
 N                  3.18600000    5.51831387    8.42310120
 Ga                 3.18600000    5.51831387   10.37200000
 N                  3.18601593    7.35776103   11.01610120
 Ga                 3.18601593    7.35776103   12.96500000
 N                  3.18600000    5.51831387   13.60910120
 Ga                 3.18600000    5.51831387   15.55800000
 N                  3.18601593    7.35776103   16.20210120
 Ga                 3.18601593    7.35776103   18.15100000
 ?s                -2.41039774    5.07052866   18.48149396
 ?s                -3.18600000    5.51831387    1.00000000
 ?s                -3.18600776    6.41394983   18.48148513
 ?s                 3.78879015    4.71296669   18.23107475
 ?s                -0.81736039    2.31133224   18.48148513
 ?s                -1.59300000    2.75915694    1.00000000
 ?s                -1.59301551    3.65481894   18.48148071
 ?s                 5.38182271    1.95376090   18.23107437
 ?s                -0.77565512    5.07051605   18.48148513
 ?s                 0.77557582    5.07053496   18.48149837
 ?s                 0.00000000    5.51831387    1.00000000
 ?s                -0.00002327    6.41394983   18.48148513
 ?s                 0.81736039    2.31133224   18.48148513
 ?s                 2.36861318    2.31133855   18.48148954
 ?s                 1.59300000    2.75915694    1.00000000
 ?s                 1.59296897    3.65481894   18.48148071
 ?s                 2.41031844    5.07050974   18.48148071
 ?s                 3.96162869    5.07052235   18.48148954
 ?s                 3.18600000    5.51831387    1.00000000
 ?s                 3.18600776    6.41394983   18.48148513
 ?s                 4.77900000    2.75915694   18.79510120
 ?s                 4.77900000    2.75915694   18.79510120
 ?s                 4.77900000    2.75915694   18.79510120
 ?s                 4.77900000    2.75915694   18.79510120
 Tv                 9.55800000    0.00000000    0.00000000
 Tv                -4.77900000    8.27747081    0.00000000
 Tv                 0.00000000    0.00000000   20.74400000

