%mem=4GB
%chk=methanol.chk
# opt ub3lyp/6-31g(d,p) guess=(core,mix,always)

Title Card Required

0 1
 C                 -3.35606082   -0.40909090    0.00000000
 H                 -2.99940640   -1.41790091    0.00000000
 H                 -2.99938798    0.09530729   -0.87365150
 H                 -4.42606082   -0.40907772    0.00000000
 O                 -2.87938590    0.26501135    1.16759033
 H                 -3.19772526    1.17069333    1.16713827

