     212
 i =      122, E =     -8504.7381291590
  N         0.0766865570        1.9804160021        2.4940456229
 Ga         0.0618749073        0.0108909071        2.8265952959
  N         0.0801674977       -0.0219813905        5.0159066728
 Ga         0.0789290481        1.8033093122        5.7994570335
  N         0.0772410173        1.8189010725        7.8012433454
 Ga         0.0748669871       -0.0262860199        8.4438404099
  N         0.0759031166       -0.0272058854       10.4193264634
 Ga         0.0759428807        1.8130596652       11.0685694221
  N         0.0759039035        1.7936614897       13.0629526256
 Ga         0.0760006741       -0.0257124296       13.8666463893
  N         0.0757176001       -0.0247456004       16.0688811893
 Ga         0.0754412017        2.0204244170       16.4814541897
 Ga         0.0467835432        3.6838110025        1.3691763604
  N        -1.4093153278        4.5509897208        2.5255056009
 Ga        -1.6033553275        2.7080324922        3.2821594332
  N        -1.5319539874        2.7577255847        5.2594716651
 Ga        -1.5602509648        4.6230578773        5.8089135939
  N        -1.5415462611        4.6225258992        7.8039529724
 Ga        -1.5223188648        2.7615482858        8.4363905670
  N        -1.5210179199        2.7655063955       10.4317124190
 Ga        -1.5472589815        4.6231037272       11.0719477234
  N        -1.5639908108        4.6337752160       13.0654816396
 Ga        -1.5211991359        2.7641163636       13.6201355909
  N        -1.5476147375        2.7483568486       15.5818834425
 Ga        -1.3745021177        4.5241406614       16.4810970806
  N         0.0750776508        3.6953093622       17.6164541079
  N        -3.1330505737        7.5225957720        2.5292926072
 Ga        -3.1122577624        5.5184545492        2.8531471712
  N        -3.1381816350        5.5446529704        5.0222529764
 Ga        -3.1457660746        7.3651274820        5.8083139571
  N        -3.1384893979        7.3902717507        7.7996640124
 Ga        -3.1399444776        5.5431964226        8.4504222421
  N        -3.1402311933        5.5447481589       10.4225932938
 Ga        -3.1415597296        7.3838070231       11.0727958178
  N        -3.1405274466        7.3645354909       13.0653190145
 Ga        -3.1402775658        5.5442645916       13.8684947429
  N        -3.1404825851        5.5458075538       16.0694531006
 Ga        -3.1407743237        7.5908525290       16.4816768769
 Ga        -3.1521830138        9.2601488359        1.4989874336
  N        -4.6411026566       10.1266281262        2.5175779034
 Ga        -4.8582223958        8.2758184488        3.2900449876
  N        -4.7458282552        8.3303056318        5.2515797875
 Ga        -4.7776692590       10.2050958139        5.7997523966
  N        -4.7568320082       10.1917318665        7.7973623041
 Ga        -4.7403405793        8.3360983567        8.4371872098
  N        -4.7367464909        8.3359050457       10.4307676624
 Ga        -4.7634508239       10.1949758157       11.0700977821
  N        -4.7797084404       10.2041611178       13.0643283257
 Ga        -4.7377047803        8.3353876494       13.6213717935
  N        -4.7639884265        8.3190098334       15.5828280895
 Ga        -4.5910268561       10.0954087432       16.4804240735
  N        -3.1412906668        9.2665378664       17.6150755765
  N         3.2830324139        1.8359717698        2.6175106529
 Ga         3.2853673157        0.0964749907        3.2895078580
  N         3.2948118627       -0.0291595472        5.2519174615
 Ga         3.2859112066        1.8328563411        5.8749838094
  N         3.2931591763        1.8292117336        7.8512556611
 Ga         3.2907755404       -0.0365170126        8.4401862966
  N         3.2924288081       -0.0388656670       10.4332455577
 Ga         3.2924142855        1.8313892341       11.0274400306
  N         3.2922518017        1.8302696554       12.9991235889
 Ga         3.2917954115       -0.0391749380       13.6217400190
  N         3.2917768016       -0.0069509986       15.5843119533
 Ga         3.2917078535        1.8309765977       15.8617381842
  N         1.5685456466        4.5542868622        2.5200549641
 Ga         1.7550359801        2.7217260030        3.2694858368
  N         1.6867876342        2.7582104371        5.2531397767
 Ga         1.7174049858        4.6229569968        5.8090958570
  N         1.6942342909        4.6215240683        7.8050099169
 Ga         1.6744717199        2.7625705204        8.4393545521
  N         1.6737422717        2.7652513096       10.4334734450
 Ga         1.6999768260        4.6236687041       11.0715627360
  N         1.7160202676        4.6339159128       13.0653050477
 Ga         1.6725795311        2.7645483582       13.6206599509
  N         1.6988739438        2.7484258878       15.5823332552
 Ga         1.5248858641        4.5238462758       16.4812342026
  N         0.0783905548        7.3838157117        2.6953861850
 Ga         0.0865110995        5.5422846774        3.3373457080
  N         0.0774668893        5.5569559007        5.2745848222
 Ga         0.0848631496        7.3980341503        5.9069833935
  N         0.0773915034        7.4023989080        7.8658999405
 Ga         0.0769142308        5.5291125422        8.4467026463
  N         0.0760368225        5.5318358742       10.4372334364
 Ga         0.0767105447        7.4014914494       11.0300265731
  N         0.0758967880        7.4013416836       13.0005921324
 Ga         0.0760679547        5.5307920285       13.6218593320
  N         0.0757370602        5.5632804296       15.5844346331
 Ga         0.0757958641        7.4009866452       15.8624478740
  N        -1.6332067408       10.1150050753        2.5242200178
 Ga        -1.4903433132        8.3017008438        3.3359647391
  N        -1.5186664417        8.3220185140        5.2630192681
 Ga        -1.5053565273       10.2078648866        5.8110364423
  N        -1.5224031323       10.1897457300        7.8016054579
 Ga        -1.5434603959        8.3359548195        8.4483873475
  N        -1.5435996611        8.3360565762       10.4369054672
 Ga        -1.5172912813       10.1960615357       11.0727294526
  N        -1.5003957781       10.2045758433       13.0658227616
 Ga        -1.5436126445        8.3355209121       13.6222188285
  N        -1.5169818439        8.3190036103       15.5835259167
 Ga        -1.6912200407       10.0950032307       16.4808142174
  N         6.5084094272        1.9540676515        2.5378953307
 Ga         6.5259925244       -0.0262762974        2.8642936249
  N         6.5059254231       -0.0267804551        5.0254369271
 Ga         6.5081121303        1.8033167886        5.8056514954
  N         6.5082910111        1.8182928135        7.8014863764
 Ga         6.5105777521       -0.0269682198        8.4476656512
  N         6.5087395322       -0.0271059659       10.4207308313
 Ga         6.5090238693        1.8139767099       11.0694065446
  N         6.5082936157        1.7937169806       13.0634280978
 Ga         6.5082356587       -0.0255030017       13.8680498899
  N         6.5075402001       -0.0249591597       16.0694995546
 Ga         6.5077895777        2.0193412890       16.4799332948
 Ga         6.5132827272        3.6859494483        1.5333947034
  N         5.0074272189        4.5531663822        2.5308045313
 Ga         4.7906053943        2.7018596427        3.2981912833
  N         4.8990080160        2.7580376767        5.2591011095
 Ga         4.8748759447        4.6309063814        5.8052681512
  N         4.8915539152        4.6212938980        7.8017972563
 Ga         4.9095723121        2.7638310120        8.4396803267
  N         4.9115510495        2.7654713397       10.4330364590
 Ga         4.8862937738        4.6247648963       11.0700052570
  N         4.8688304352        4.6339134822       13.0644111441
 Ga         4.9114396822        2.7647413045       13.6203178407
  N         4.8850011915        2.7486068216       15.5824728083
 Ga         5.0566774642        4.5250932458       16.4791909816
  N         6.5079509724        3.6960436813       17.6128207983
  N         3.2890170676        7.5166252780        2.4949344597
  N         3.2935566550        5.5429186231        5.0297353604
 Ga         3.2973269295        7.3692995003        5.7980783057
  N         3.2905267514        7.3914644771        7.7954559378
 Ga         3.2930516480        5.5453110766        8.4476395530
  N         3.2926310990        5.5451295317       10.4213193928
 Ga         3.2944642059        7.3841228289       11.0714684598
  N         3.2925869688        7.3644611892       13.0647616512
 Ga         3.2924001779        5.5441607511       13.8677995863
  N         3.2915079383        5.5454997080       16.0694429352
 Ga         3.2918098687        7.5894148290       16.4803403544
 Ga         3.3325311168        9.2898112015        1.3417028760
  N         1.7845903414       10.1228346625        2.5091410859
 Ga         1.6775302376        8.3154183945        3.2905955701
  N         1.6719927659        8.3206008518        5.2382318647
 Ga         1.6619368295       10.2015213811        5.7982664609
  N         1.6741973041       10.1882373381        7.7950379016
 Ga         1.6982440179        8.3368625129        8.4472157605
  N         1.6962323348        8.3364193168       10.4365925577
 Ga         1.6708226920       10.1963474258       11.0718611102
  N         1.6525512338       10.2046306638       13.0654776902
 Ga         1.6955679895        8.3353530620       13.6213210199
  N         1.6689068024        8.3192122132       15.5832659580
 Ga         1.8405791777       10.0960229587       16.4793243197
  N         3.2920999634        9.2667870217       17.6131941058
  N         9.7357554268        1.8294738586        2.6298897339
 Ga         9.7295783968        0.0696208482        3.2664700494
  N         9.7223095544       -0.0299431607        5.2444540186
 Ga         9.7309682802        1.8250387889        5.8703708546
  N         9.7240351254        1.8287669577        7.8490229731
 Ga         9.7266525981       -0.0383564615        8.4328409214
  N         9.7243385592       -0.0393209379       10.4292835954
 Ga         9.7247847323        1.8305603906       11.0246987959
  N         9.7239629008        1.8301144154       12.9973574968
 Ga         9.7248311033       -0.0389146713       13.6208556301
  N         9.7239429174       -0.0072232348       15.5840679808
 Ga         9.7242628655        1.8310067058       15.8619983963
  N         8.0122958970        4.5538547142        2.5384755516
 Ga         8.2289719711        2.6949074183        3.3010421014
  N         8.1176690303        2.7575747957        5.2611882152
 Ga         8.1413689628        4.6299181202        5.8027529152
  N         8.1270869059        4.6223470857        7.7995257717
 Ga         8.1086128108        2.7635754098        8.4368977084
  N         8.1055207886        2.7657453637       10.4313206486
 Ga         8.1303922782        4.6240144446       11.0706197074
  N         8.1477387111        4.6339053965       13.0647372373
 Ga         8.1051892032        2.7646582269       13.6201424891
  N         8.1308967844        2.7483526637       15.5824384035
 Ga         7.9589230592        4.5251873239       16.4791875188
  N         6.5043420567        7.4030308320        2.6105580611
 Ga         6.5045412942        5.6661191902        3.2961403995
  N         6.5087446313        5.5463342845        5.2567037079
 Ga         6.5021333382        7.4056942296        5.8700795109
  N         6.5082067447        7.4018740711        7.8461377699
 Ga         6.5089568746        5.5344690826        8.4378133122
  N         6.5087426145        5.5327278916       10.4318251905
 Ga         6.5080001413        7.4022708695       11.0257469791
  N         6.5080331720        7.4013372368       12.9978741350
 Ga         6.5082538597        5.5315812958       13.6208096817
  N         6.5076760972        5.5633067363       15.5840602401
 Ga         6.5080105587        7.4012287695       15.8625654851
  N         4.8030219259       10.1307858749        2.5175588757
 Ga         4.9780795205        8.2823215435        3.2574710217
  N         4.8983930616        8.3286842469        5.2379388156
 Ga         4.9277806438       10.2012451241        5.7863766380
  N         4.9110573820       10.1915600900        7.7908781246
 Ga         4.8908896553        8.3374762234        8.4334751281
  N         4.8893139358        8.3360215596       10.4289471493
 Ga         4.9146615914       10.1947009114       11.0686580483
  N         4.9316308942       10.2042280610       13.0636532218
 Ga         4.8893588653        8.3356552341       13.6209391724
  N         4.9148988178        8.3190971591       15.5830674377
 Ga         4.7432301188       10.0962379199       16.4791768487
  O         0.0691353743        4.0713707584       -0.4306625747
  H        -0.1134144466        5.8592442965       -0.3385325235
  C         1.2455353317        3.6549834769       -1.1519296509
  H         2.1742851813        3.9957987760       -0.6652797551
  H         1.2862954569        2.5596694534       -1.2516436082
  H         1.1941516300        4.0940294127       -2.1583420195
 Ga         3.2651268398        5.5378583737        2.8552675898
  O        -0.0913504995        6.8462328859       -0.2101129142
  H         0.0296616147        7.3122458724        1.6580934356
  C         1.1505337310        7.3092997785       -0.7579692680
  H         1.1308522599        8.4080509812       -0.7337711749
  H         2.0156417339        6.9625131254       -0.1645739080
  H         1.2833348198        6.9916996975       -1.8029897376
