#p

 i =       90, E =     -8504.7368555111

0 1
  N         0.0020865101        2.0471857584        2.5090819117
 Ga        -0.0292394945        0.0932874745        2.8608824752
  N        -0.0016475652        0.0497920224        5.0253924389
 Ga        -0.0040919570        1.8843443257        5.8070817080
  N        -0.0058877715        1.8908809487        7.8089157207
 Ga        -0.0074802150        0.0477851584        8.4484287607
  N        -0.0053593247        0.0458795600       10.4239495210
 Ga        -0.0058148962        1.8855437848       11.0729553699
  N        -0.0060365706        1.8648680998       13.0742149067
 Ga        -0.0047015564        0.0361103335       13.8652333855
  N        -0.0051064938        0.0329443045       16.0742419816
 Ga        -0.0052172217        2.0323341896       16.4349263269
 Ga         0.0280294091        3.7709460338        1.3887881109
  N        -1.4770641946        4.6205825199        2.5042776414
 Ga        -1.6765674017        2.7896970969        3.2725741946
  N        -1.6146150933        2.8319989675        5.2552862887
 Ga        -1.6258754644        4.6991048431        5.8036819286
  N        -1.6260562785        4.6963883703        7.8053214539
 Ga        -1.6038862910        2.8385386739        8.4404892132
  N        -1.6022692505        2.8396576267       10.4387573089
 Ga        -1.6292302237        4.6989693483       11.0730630031
  N        -1.6477322242        4.7084876097       13.0742824061
 Ga        -1.6035757123        2.8381638683       13.6174746543
  N        -1.6189129400        2.8288126626       15.5968519348
 Ga        -1.5033411366        4.6255524666       16.4350193573
  N        -0.0063923743        3.7614820375       17.5588694447
  N        -3.2298787027        7.5967444644        2.5275405851
 Ga        -3.1718905524        5.5870855316        2.8602305730
  N        -3.2201026776        5.6170639542        5.0145446513
 Ga        -3.2125159347        7.4378840516        5.8058621822
  N        -3.2223660552        7.4645847699        7.7967141160
 Ga        -3.2199308761        5.6170787700        8.4495658686
  N        -3.2226506370        5.6188705003       10.4238889903
 Ga        -3.2202522127        7.4591493814       11.0731061487
  N        -3.2218795327        7.4400162276       13.0657631516
 Ga        -3.2310195372        5.6236737536       13.8663348912
  N        -3.2341603039        5.6249081803       16.0742872768
 Ga        -3.2234986589        7.6813564025       16.5038414538
 Ga        -3.1876609670        9.3480919119        1.5296164418
  N        -4.7258999081       10.1913235259        2.5221548812
 Ga        -4.8755062446        8.3830610281        3.3394499780
  N        -4.8472466201        8.3933796204        5.2594549940
 Ga        -4.8597675248       10.2872981853        5.8109508841
  N        -4.8373949981       10.2635604360        7.8012707925
 Ga        -4.8184536359        8.4090711337        8.4454640468
  N        -4.8178283874        8.4093939036       10.4345196499
 Ga        -4.8431707716       10.2684034951       11.0730758999
  N        -4.8595956748       10.2764094104       13.0658088672
 Ga        -4.8183117312        8.4092500759       13.6294719413
  N        -4.8463677887        8.3932511701       15.5867835316
 Ga        -4.6510480928       10.1543896846       16.5037534300
  N        -3.2128084852        9.3361519317       17.6469455387
  N         3.1924937649        1.9200104998        2.6121278499
 Ga         3.2078620048        0.1842235073        3.2988379570
  N         3.2103814433        0.0494593228        5.2565343400
 Ga         3.2088853959        1.9160306902        5.8844048778
  N         3.2150469515        1.9048388626        7.8598160900
 Ga         3.2140261944        0.0380350207        8.4436688280
  N         3.2117779593        0.0341161936       10.4371275260
 Ga         3.2112854912        1.9023214504       11.0365561846
  N         3.2088370669        1.9041300917       13.0101481663
 Ga         3.2110822358        0.0323538428       13.6295060955
  N         3.2039204637        0.0690721962       15.5885752103
 Ga         3.2124667266        1.9029562105       15.8657609735
  N         1.4764524487        4.6146581774        2.5445745083
 Ga         1.6757249195        2.8063628780        3.3060056402
  N         1.6055350808        2.8313848534        5.2745378869
 Ga         1.6440202054        4.7132479453        5.8193435546
  N         1.6032086951        4.6894602855        7.8340364273
 Ga         1.5918082010        2.8380426070        8.4494633841
  N         1.5925206789        2.8353662023       10.4471240950
 Ga         1.6188673899        4.6995628809       11.0688966898
  N         1.6362044173        4.7087440788       13.0730272049
 Ga         1.5913484101        2.8393368004       13.6173322193
  N         1.6076261560        2.8291645486       15.5968273199
 Ga         1.4921063312        4.6251075173       16.4349550440
  N         0.0117952462        7.4572928296        2.6138345727
 Ga         0.0198337697        5.7023788836        3.3018845781
  N        -0.0040958180        5.6206506222        5.2710240786
 Ga         0.0133339405        7.4718244802        5.8710581275
  N        -0.0016403090        7.4782189940        7.8521301167
 Ga        -0.0059998134        5.6082724336        8.4451623485
  N        -0.0084646664        5.6079382478       10.4444284525
 Ga        -0.0062913216        7.4766048844       11.0334021399
  N        -0.0061826709        7.4728396189       13.0081118623
 Ga        -0.0050553947        5.6047368392       13.6170181523
  N        -0.0053408109        5.6233714951       15.5969064043
 Ga        -0.0056717121        7.4760010489       15.8662991737
  N        -1.7133526613       10.2027998436        2.5421602111
 Ga        -1.4844180480        8.3332443546        3.2961791021
  N        -1.6111383526        8.4022569494        5.2536862858
 Ga        -1.5862522460       10.2754767420        5.8047817229
  N        -1.6033687622       10.2659049925        7.7999154418
 Ga        -1.6176241390        8.4089281313        8.4385075769
  N        -1.6245517947        8.4102953151       10.4338900614
 Ga        -1.5966443636       10.2688595105       11.0757471926
  N        -1.5806723835       10.2784401767       13.0705517466
 Ga        -1.6257212373        8.4102617326       13.6292520239
  N        -1.5976733144        8.3858567279       15.5883738511
 Ga        -1.7794000111       10.1638381191       16.5024257486
  N         6.4229203297        2.0294977551        2.5427774369
 Ga         6.4538728526        0.0393179869        2.8799073840
  N         6.4259257288        0.0508529199        5.0250881721
 Ga         6.4225531900        1.8804400758        5.8030477315
  N         6.4266763248        1.8930939878        7.7997233195
 Ga         6.4308512238        0.0471241162        8.4461452428
  N         6.4277701072        0.0477989320       10.4224193690
 Ga         6.4294420729        1.8852754512       11.0791444511
  N         6.4284445648        1.8666771433       13.0729695776
 Ga         6.4271305993        0.0476530237       13.8861639657
  N         6.4260708004        0.0471360523       16.0768776824
 Ga         6.4262131042        2.0965294186       16.5038356450
 Ga         6.4512175171        3.7094709797        1.4940744517
  N         4.9199773773        4.6378121993        2.4144205097
 Ga         4.6919131978        2.8041189058        3.2874119059
  N         4.8212037203        2.8452142188        5.2468751020
 Ga         4.7655258400        4.7135910906        5.8395685910
  N         4.8260587747        4.6882804480        7.8358896183
 Ga         4.8326283468        2.8343819433        8.4567495487
  N         4.8311671428        2.8351688553       10.4480295606
 Ga         4.8040400933        4.6985508935       11.0735443414
  N         4.7898092276        4.7072078550       13.0676762108
 Ga         4.8316673641        2.8397131268       13.6290272733
  N         4.7961732990        2.8266252357       15.5883284505
 Ga         4.9996233784        4.5866982116       16.5045367352
  N         6.4263642852        3.7509079786       17.6497929983
  N         3.2165957485        7.5915785597        2.3938978882
  N         3.2174792792        5.6174446509        5.1711764836
 Ga         3.2052442158        7.4214983330        5.8211934506
  N         3.2137849980        7.4805273766        7.8271424860
 Ga         3.2099227233        5.6200747871        8.4424668397
  N         3.2124476978        5.6191693306       10.4267746116
 Ga         3.2105073255        7.4582416787       11.0722674412
  N         3.2116518908        7.4402655586       13.0672508474
 Ga         3.2207599141        5.6230618825       13.8633570123
  N         3.2230363829        5.6243598453       16.0746358878
 Ga         3.2125733410        7.6791074845       16.5003404704
 Ga         3.1764574819        9.4168098794        1.2933921485
  N         1.7109412415       10.2016872453        2.5281229405
 Ga         1.5477855365        8.3331005697        3.2451773634
  N         1.6161745950        8.4000683738        5.2291085150
 Ga         1.5860670577       10.2651630773        5.7894135577
  N         1.5926481626       10.2656598072        7.7932744313
 Ga         1.6123540872        8.4140796903        8.4488169390
  N         1.6112475706        8.4126121192       10.4437456952
 Ga         1.5880812120       10.2708135796       11.0773300104
  N         1.5709943666       10.2796815869       13.0723311501
 Ga         1.6150649650        8.4101185749       13.6275263918
  N         1.5866371311        8.3858347457       15.5879645868
 Ga         1.7655879951       10.1648007625       16.4996516162
  N         3.2008865444        9.3361913399       17.6428182251
  N         9.6559929683        1.9061048325        2.6253961100
 Ga         9.6512289628        0.1444120962        3.2721559656
  N         9.6470838567        0.0486997830        5.2485707294
 Ga         9.6526444268        1.9030145858        5.8725587516
  N         9.6430108062        1.9044787056        7.8512461995
 Ga         9.6426369412        0.0350380563        8.4325565592
  N         9.6431711388        0.0345605325       10.4313272424
 Ga         9.6426172649        1.9036546861       11.0271247010
  N         9.6448009909        1.9050440297       13.0029790717
 Ga         9.6433040195        0.0347289268       13.6291381460
  N         9.6496422104        0.0697808142       15.5891871083
 Ga         9.6413335639        1.9032937657       15.8698474021
  N         7.9160057981        4.6386764943        2.5233696541
 Ga         8.1513234051        2.7688281331        3.3026773483
  N         8.0353166329        2.8366050824        5.2588251371
 Ga         8.0631792171        4.7070149520        5.8017678677
  N         8.0438809998        4.6999708930        7.7951527307
 Ga         8.0261660425        2.8377378374        8.4366180928
  N         8.0238571081        2.8398024347       10.4330178278
 Ga         8.0510208724        4.6964854749       11.0770792415
  N         8.0659139498        4.7065505952       13.0686505924
 Ga         8.0243592745        2.8389362618       13.6303768421
  N         8.0579754602        2.8263191926       15.5893314181
 Ga         7.8533025641        4.5866317135       16.5052334073
  N         6.4162606447        7.4776414943        2.6032139437
 Ga         6.3826240316        5.6573462490        3.3179157616
  N         6.4195603392        5.6302774648        5.2413383757
 Ga         6.4076972457        7.4738968116        5.9021574599
  N         6.4244951319        7.4742189653        7.8595427045
 Ga         6.4310323472        5.6044536060        8.4595310912
  N         6.4313276785        5.6079668766       10.4461074993
 Ga         6.4290402445        7.4766039485       11.0380314977
  N         6.4281163949        7.4752475554       13.0060520902
 Ga         6.4273387386        5.6053121739       13.6291286756
  N         6.4269175876        5.6372469839       15.5869311093
 Ga         6.4270963888        7.4741671227       15.8640096668
  N         4.7215813239       10.1961416573        2.5097164158
 Ga         4.7948906397        8.3804966292        3.2818602920
  N         4.8248866203        8.3918992502        5.2240536432
 Ga         4.8450698397       10.2741638750        5.7926409750
  N         4.8315795022       10.2618791424        7.7927133463
 Ga         4.8059126646        8.4144144524        8.4565972657
  N         4.8118982192        8.4116832132       10.4449377818
 Ga         4.8322353008       10.2703167102       11.0752646969
  N         4.8491934591       10.2778994949       13.0679554548
 Ga         4.8083861620        8.4093846711       13.6278455976
  N         4.8357052708        8.3932925345       15.5864901170
 Ga         4.6417457458       10.1549804242       16.5010601279
  O         0.6510985683        3.9870252017       -0.3605185072
  H         2.5057372161        6.4551180205       -0.1017480943
  C         0.9797221222        2.7816064048       -1.0830777198
  H         1.7112712647        2.1636378280       -0.5365888315
  H         0.0816453919        2.1763658098       -1.2770728253
  H         1.4145876050        3.0763067807       -2.0484699272
 Ga         3.1383695434        5.5981083844        2.2604537153
  O         2.8130139517        5.5538066222        0.1066642092
  H         2.0096181035        4.9503777713       -0.0853600943
  C         6.4476965029        7.4807757784        1.1126076464
  H         6.4308290005        8.5105422180        0.7266863778
  H         7.3557357137        6.9853577821        0.7381064305
  H         5.5763472121        6.9519437779        0.6988328874

