     212
 i =       57, E =     -8504.7349122543
  N         0.0075203401        2.0430347024        2.4919219863
 Ga         0.0229310013        0.0773251185        2.8322228907
  N        -0.0066808003        0.0497005725        5.0082930758
 Ga        -0.0043104484        1.8767585605        5.7932987413
  N        -0.0060617877        1.8892235583        7.7947554274
 Ga        -0.0007760682        0.0434472506        8.4324262335
  N        -0.0039684432        0.0435928011       10.4109068998
 Ga        -0.0039449529        1.8829850023       11.0632466269
  N        -0.0058272999        1.8637303977       13.0593936257
 Ga        -0.0046450190        0.0441488641       13.8605484877
  N        -0.0059832188        0.0441297511       16.0663237891
 Ga        -0.0063741005        2.0862873249       16.4748495683
 Ga         0.0717635661        3.7354452662        1.3589881715
  N        -1.4666114129        4.6227396471        2.4595550987
 Ga        -1.6697493594        2.7900316474        3.2480666857
  N        -1.6108630872        2.8332961166        5.2344984613
 Ga        -1.6421355551        4.6945282845        5.8056897550
  N        -1.6227745796        4.6924712943        7.7997139172
 Ga        -1.6009050850        2.8340610333        8.4352768986
  N        -1.6018321407        2.8366708224       10.4298164429
 Ga        -1.6299066761        4.6956130249       11.0670280406
  N        -1.6462821422        4.7042792243       13.0622724969
 Ga        -1.6024851189        2.8347123397       13.6157517921
  N        -1.6286419878        2.8183179163       15.5795672622
 Ga        -1.4600932167        4.5958660393       16.4745012522
  N        -0.0069889446        3.7656259113       17.6080827731
  N        -3.2152938360        7.5816397128        2.4881363392
 Ga        -3.1887530578        5.6086057483        2.8282359150
  N        -3.2140129479        5.6076681110        5.0074683507
 Ga        -3.2296904481        7.4377523096        5.7768498362
  N        -3.2200311151        7.4618528655        7.7787203147
 Ga        -3.2217973131        5.6172851299        8.4370287236
  N        -3.2215702910        5.6165088740       10.4132332901
 Ga        -3.2232356927        7.4555977073       11.0634365581
  N        -3.2221509158        7.4352989128       13.0583872440
 Ga        -3.2222366219        5.6155719754       13.8622384881
  N        -3.2230735692        5.6162100508       16.0668505350
 Ga        -3.2231498677        7.6615474637       16.4783388111
 Ga        -3.2504536510        9.3531119674        1.2884516151
  N        -4.7272102320       10.1962282747        2.4970642619
 Ga        -4.9183807255        8.3451160711        3.2198367646
  N        -4.8331658272        8.3941096875        5.2087099854
 Ga        -4.8523111822       10.2681302090        5.7673161475
  N        -4.8371663877       10.2606508285        7.7759016724
 Ga        -4.8197466965        8.4071731789        8.4210928254
  N        -4.8176280617        8.4069501381       10.4194406046
 Ga        -4.8432808850       10.2651234121       11.0607118789
  N        -4.8609839187       10.2742478089       13.0573323020
 Ga        -4.8184430226        8.4062294828       13.6165280169
  N        -4.8458748893        8.3887759117       15.5785391902
 Ga        -4.6726132964       10.1644553545       16.4770573013
  N        -3.2230676147        9.3367606562       17.6118347779
  N         3.1968613808        1.9079903313        2.6042339192
 Ga         3.2076429229        0.1399668052        3.2422838613
  N         3.2150584677        0.0453881022        5.2262671357
 Ga         3.2102609708        1.8997168412        5.8634512998
  N         3.2144797283        1.9004116435        7.8431042448
 Ga         3.2093280491        0.0332197016        8.4235257669
  N         3.2110110098        0.0312584160       10.4220488169
 Ga         3.2109437287        1.9000532931       11.0212831279
  N         3.2103173712        1.9000647172       12.9954071698
 Ga         3.2102941442        0.0305243582       13.6158771668
  N         3.2091519115        0.0623857075       15.5795280067
 Ga         3.2097413721        1.9001520979       15.8567245770
  N         1.4742603529        4.6239644755        2.5489525077
 Ga         1.6856542203        2.7871132437        3.2990292356
  N         1.6049975373        2.8315965072        5.2636292878
 Ga         1.6524776178        4.7081373926        5.8111205378
  N         1.6051695931        4.6904513661        7.8166822270
 Ga         1.5940831311        2.8330260166        8.4323452307
  N         1.5926706357        2.8340466712       10.4302778332
 Ga         1.6191895125        4.6943631439       11.0641092871
  N         1.6343011677        4.7042311522       13.0613227115
 Ga         1.5910391757        2.8351315855       13.6151040308
  N         1.6158154128        2.8183817135       15.5793885970
 Ga         1.4465376694        4.5954193342       16.4743722283
  N        -0.0097886163        7.4622436726        2.6916737874
 Ga        -0.0027361753        5.6104305264        3.3403312955
  N        -0.0078904599        5.6294775306        5.2689384917
 Ga        -0.0087190250        7.4699638069        5.9016757613
  N        -0.0041211846        7.4745683441        7.8606020815
 Ga        -0.0052428196        5.6003540042        8.4459584973
  N        -0.0072037094        5.6044883660       10.4376166342
 Ga        -0.0074209814        7.4736588368       11.0267936516
  N        -0.0066073628        7.4720035115       12.9987801824
 Ga        -0.0054686139        5.6007175459       13.6166382274
  N        -0.0064148936        5.6316514092       15.5818307386
 Ga        -0.0067324900        7.4705614136       15.8575881031
  N        -1.7053071704       10.1974877862        2.5018312480
 Ga        -1.6220793403        8.4009330814        3.2937824566
  N        -1.5996399051        8.3937161487        5.2356433367
 Ga        -1.5914413335       10.2772236278        5.7896322581
  N        -1.6021339521       10.2610530924        7.7862907687
 Ga        -1.6275910368        8.4079704041        8.4342973720
  N        -1.6258268900        8.4074262041       10.4271596672
 Ga        -1.5999338596       10.2669035574       11.0638011302
  N        -1.5818752499       10.2750815033       13.0592209618
 Ga        -1.6260820764        8.4065971244       13.6171084316
  N        -1.5996027638        8.3883077651       15.5792545878
 Ga        -1.7733788815       10.1645742039       16.4771131943
  N         6.4316974896        2.0241468193        2.5403920203
 Ga         6.4115505173        0.0449047278        2.8771890105
  N         6.4344527562        0.0458820393        5.0222397239
 Ga         6.4253960640        1.8802671296        5.7966683454
  N         6.4284582257        1.8898146490        7.7929685274
 Ga         6.4265507192        0.0455038185        8.4392925756
  N         6.4271484112        0.0443009183       10.4141650986
 Ga         6.4281338000        1.8848083535       11.0643154403
  N         6.4276173587        1.8641918214       13.0595319220
 Ga         6.4262919642        0.0450633092       13.8626535869
  N         6.4251643316        0.0445775424       16.0664585144
 Ga         6.4252590854        2.0889627895       16.4761563569
 Ga         6.4569522801        3.7317478874        1.5203011577
  N         4.9277180291        4.6203936789        2.4547407140
 Ga         4.6975984466        2.7854873833        3.2851930673
  N         4.8205506723        2.8353272450        5.2435081392
 Ga         4.7799233315        4.7121128350        5.8069650868
  N         4.8201418788        4.6880149290        7.8126552520
 Ga         4.8299203869        2.8341864589        8.4371993139
  N         4.8307129805        2.8343110978       10.4322433768
 Ga         4.8051890243        4.6959747384       11.0629033082
  N         4.7878380371        4.7043547344       13.0600300091
 Ga         4.8299013244        2.8351671426       13.6143426205
  N         4.8028276107        2.8183842633       15.5778566080
 Ga         4.9744691012        4.5945791936       16.4752689227
  N         6.4252361618        3.7658924825       17.6105869840
  N         3.2067528464        7.6000584668        2.4606912610
  N         3.2153474692        5.6198119631        5.1188862108
 Ga         3.2216243087        7.4171777077        5.8187169456
  N         3.2113407610        7.4737329150        7.8164959975
 Ga         3.2131446691        5.6145266822        8.4371614517
  N         3.2117809751        5.6159127909       10.4180130792
 Ga         3.2133921328        7.4541878579       11.0655533006
  N         3.2111027029        7.4355730428       13.0610122453
 Ga         3.2113332111        5.6148139007       13.8603088888
  N         3.2098623121        5.6155851413       16.0669713636
 Ga         3.2097622685        7.6595842917       16.4762200484
 Ga         3.2364174862        9.3695895134        1.4971373066
  N         1.7108269789       10.1866018975        2.5254250461
 Ga         1.5851300487        8.3624002650        3.3307615763
  N         1.5968711073        8.3918472080        5.2524488066
 Ga         1.5802513462       10.2758306971        5.8062832086
  N         1.5944193153       10.2614756656        7.7958108051
 Ga         1.6155591164        8.4093953246        8.4502883622
  N         1.6126096320        8.4088419404       10.4388356638
 Ga         1.5885024803       10.2687000178       11.0682340882
  N         1.5710837911       10.2759810600       13.0624949149
 Ga         1.6140056638        8.4061131010       13.6164684122
  N         1.5865426149        8.3883438545       15.5795928864
 Ga         1.7580422079       10.1653712109       16.4755920434
  N         3.2094547897        9.3365577749       17.6085969231
  N         9.6584607583        1.9082025372        2.6076002132
 Ga         9.6580511555        0.1743492517        3.2957693433
  N         9.6449686293        0.0440085941        5.2514590874
 Ga         9.6568494978        1.9078187965        5.8697312233
  N         9.6457249216        1.9015019282        7.8445607342
 Ga         9.6477140432        0.0339684171        8.4312090716
  N         9.6439460149        0.0323682784       10.4266233731
 Ga         9.6433310387        1.9024686802       11.0208953295
  N         9.6426253188        1.9009308520       12.9946183940
 Ga         9.6434464010        0.0316598633       13.6173135126
  N         9.6424300036        0.0628396535       15.5814619021
 Ga         9.6423321272        1.9006286228       15.8592357875
  N         7.9330599885        4.6213558009        2.5232634497
 Ga         8.1545628408        2.7720003438        3.3008090035
  N         8.0413410502        2.8284556371        5.2553245126
 Ga         8.0598277176        4.7058017944        5.7873021653
  N         8.0462180345        4.6947192710        7.7873236204
 Ga         8.0271553314        2.8373449513        8.4282373525
  N         8.0248821673        2.8370956387       10.4248203391
 Ga         8.0504929518        4.6957561989       11.0647628327
  N         8.0669903527        4.7040961131       13.0604851711
 Ga         8.0238106175        2.8353232410       13.6165013978
  N         8.0492099233        2.8181556300       15.5795360241
 Ga         7.8762812103        4.5947994740       16.4759663500
  N         6.4146185430        7.4615043207        2.5468006194
 Ga         6.4104975201        5.7335896802        3.2722254238
  N         6.4251156968        5.6139870053        5.2314351703
 Ga         6.4304763306        7.4715668246        5.8564072381
  N         6.4273308145        7.4716540467        7.8343147737
 Ga         6.4303014094        5.6049299725        8.4350594993
  N         6.4300253473        5.6052069117       10.4304937272
 Ga         6.4299655061        7.4737979801       11.0225076350
  N         6.4275749792        7.4720892652       12.9955263391
 Ga         6.4270061870        5.6015591336       13.6157291149
  N         6.4257444706        5.6325015224       15.5802240677
 Ga         6.4261846928        7.4706534185       15.8578263329
  N         4.7198591890       10.1996080874        2.5210872280
 Ga         4.9240238848        8.3269431335        3.2763745677
  N         4.8151846389        8.3990536281        5.2335786164
 Ga         4.8533276659       10.2701857349        5.7902800612
  N         4.8311009552       10.2618373144        7.7885234601
 Ga         4.8142873640        8.4086682648        8.4370736362
  N         4.8113959681        8.4082035017       10.4311161005
 Ga         4.8357235614       10.2669748975       11.0648409363
  N         4.8504850637       10.2755210170       13.0605005210
 Ga         4.8080070778        8.4062455905       13.6159888548
  N         4.8330794443        8.3885913237       15.5792574357
 Ga         4.6609266241       10.1648660020       16.4756986197
  O         0.7965371802        3.8810837290       -0.3615048131
  H        -0.0017634821        7.4455083885        1.6655144042
  C         1.1627759876        2.6258421377       -0.9775924490
  H         1.8549824205        2.0458087392       -0.3443350471
  H         0.2767194126        2.0084486063       -1.1876776395
  H         1.6573160507        2.8527109010       -1.9329698201
 Ga         3.1686778235        5.5822618238        2.3712065658
  O         2.8848681015        5.5764692472        0.2414547170
  H         2.2029233689        4.8953210523       -0.0695517970
  C         4.0449353062        5.6765774053       -0.6089252625
  H         3.7767455034        6.1431778340       -1.5662486197
  H         4.7776324413        6.3042710150       -0.0750487858
  H         4.4907242213        4.6874497456       -0.7934708037
