     212
 i =      123, E =     -8504.7261847071
  N         0.0091605281        2.0458569834        2.4722046888
 Ga         0.0279275610        0.0895608242        2.8059170103
  N         0.0020934048        0.0530756171        4.9864906072
 Ga         0.0081249140        1.8829871707        5.7588128692
  N         0.0057721427        1.8945748546        7.7634516111
 Ga         0.0092656944        0.0492775109        8.4043670779
  N         0.0065723864        0.0483952100       10.3819927269
 Ga         0.0066875903        1.8882937391       11.0316275680
  N         0.0054686518        1.8693602188       13.0280131641
 Ga         0.0067471753        0.0493086720       13.8285979389
  N         0.0079085080        0.0486470521       16.0341268717
 Ga         0.0062729351        2.0875395100       16.4438157207
 Ga         0.0279978660        3.7252194774        1.2920566646
  N        -1.4679231787        4.6252060063        2.4485311309
 Ga        -1.6608489249        2.7952474368        3.2299580967
  N        -1.6032786902        2.8361684641        5.2151329069
 Ga        -1.6293836739        4.7004201303        5.7695360852
  N        -1.6110870232        4.6979827107        7.7668605438
 Ga        -1.5893799297        2.8394008141        8.4034594878
  N        -1.5911650206        2.8407848444       10.3985203554
 Ga        -1.6181336715        4.6994504195       11.0339852627
  N        -1.6345635924        4.7095087069       13.0288249507
 Ga        -1.5914242887        2.8409618523       13.5841925143
  N        -1.6189104624        2.8264505136       15.5471336768
 Ga        -1.4373778234        4.5959659386       16.4454506161
  N         0.0139924610        3.7574901615       17.5788285282
  N        -3.2143399375        7.5828735297        2.4622796529
 Ga        -3.1762954211        5.6077965711        2.8051763737
  N        -3.2065230936        5.6128061837        4.9867865532
 Ga        -3.2236302205        7.4417814827        5.7510071467
  N        -3.2120630763        7.4667243486        7.7525633543
 Ga        -3.2105808328        5.6214262085        8.4076626950
  N        -3.2105069796        5.6206546671       10.3833483259
 Ga        -3.2121479373        7.4591138258       11.0341624130
  N        -3.2110520908        7.4401482910       13.0289797828
 Ga        -3.2101198424        5.6195546334       13.8299903870
  N        -3.2083827462        5.6189940148       16.0347904949
 Ga        -3.2104604189        7.6588178304       16.4459134696
 Ga        -3.2450994675        9.3569802370        1.2648170782
  N        -4.7256408757       10.1974565662        2.4704764048
 Ga        -4.9190628259        8.3453900527        3.1876601087
  N        -4.8271905678        8.3967722358        5.1785431083
 Ga        -4.8457418030       10.2700765363        5.7416886101
  N        -4.8286591549       10.2631254100        7.7500579452
 Ga        -4.8091679873        8.4119712296        8.3985252082
  N        -4.8072991510        8.4107647054       10.3938538343
 Ga        -4.8329516630       10.2698502661       11.0306961088
  N        -4.8499926050       10.2795620286       13.0263752218
 Ga        -4.8079020754        8.4120408310       13.5847729284
  N        -4.8347223141        8.3973334364       15.5476228533
 Ga        -4.6539393139       10.1669224355       16.4462749765
  N        -3.2028445946        9.3289721570       17.5807887326
  N         3.2101900343        1.9063410100        2.5832099435
 Ga         3.2102959295        0.1396030098        3.2160520001
  N         3.2211077949        0.0460978483        5.2009433885
 Ga         3.2125177148        1.9016709160        5.8316079956
  N         3.2213413219        1.9035691465        7.8122534733
 Ga         3.2178454205        0.0367845859        8.3943826749
  N         3.2212428862        0.0351532374       10.3919044095
 Ga         3.2214761163        1.9044448695       10.9877105857
  N         3.2219024159        1.9050183277       12.9621897739
 Ga         3.2207648063        0.0362474740       13.5841136526
  N         3.2204128044        0.0670049972       15.5470657933
 Ga         3.2217453535        1.9056990888       15.8247561805
  N         1.4853233320        4.6274170663        2.4528446645
 Ga         1.6868462842        2.7943971065        3.2383972272
  N         1.6153854310        2.8390327490        5.2168641051
 Ga         1.6587094478        4.7091745966        5.7651508357
  N         1.6201724441        4.6971855486        7.7706568530
 Ga         1.6042115555        2.8389133047        8.3991547833
  N         1.6034243594        2.8399907556       10.3970844419
 Ga         1.6296753547        4.6985801910       11.0330956769
  N         1.6451542355        4.7093206334       13.0289423215
 Ga         1.6026605292        2.8404255747       13.5832227489
  N         1.6303933673        2.8249064640       15.5475074638
 Ga         1.4563875507        4.5996625988       16.4438816540
  N        -0.0036031522        7.4692509307        2.6625721779
 Ga         0.0099488565        5.6064772798        3.2850736092
  N         0.0068887437        5.6332082469        5.2223630397
 Ga        -0.0046430347        7.4697090657        5.8695975746
  N         0.0033874778        7.4766690729        7.8288038372
 Ga         0.0064754529        5.6035428672        8.4104814467
  N         0.0052628205        5.6072283278       10.4025221057
 Ga         0.0043770720        7.4761226550       10.9934235877
  N         0.0050217996        7.4767736556       12.9657382183
 Ga         0.0051532978        5.6062784187       13.5844196772
  N         0.0044405617        5.6379197322       15.5473234459
 Ga         0.0048964348        7.4763085818       15.8258382337
  N        -1.7002435686       10.1984040572        2.4769017324
 Ga        -1.6190792155        8.4000831864        3.2654550832
  N        -1.5939768399        8.3960043223        5.2079319475
 Ga        -1.5844540784       10.2795769440        5.7622796006
  N        -1.5934708675       10.2640468818        7.7593394753
 Ga        -1.6183915005        8.4110560844        8.4059811119
  N        -1.6148425703        8.4107627605       10.3981218902
 Ga        -1.5899496916       10.2705870843       11.0331894541
  N        -1.5715802981       10.2798251756       13.0282267618
 Ga        -1.6145504339        8.4117194602       13.5854992198
  N        -1.5865857306        8.3959248218       15.5492019038
 Ga        -1.7604587946       10.1706346603       16.4452815890
  N         6.4428739443        2.0228131778        2.5221289522
 Ga         6.4167510871        0.0486081270        2.8504963451
  N         6.4409233938        0.0488913238        4.9994338243
 Ga         6.4355100881        1.8810678016        5.7744096236
  N         6.4383285130        1.8936989867        7.7695458574
 Ga         6.4341339677        0.0487737929        8.4125258720
  N         6.4368745003        0.0481695940       10.3860807375
 Ga         6.4370056214        1.8893001505       11.0328917487
  N         6.4377269878        1.8693812061       13.0286837242
 Ga         6.4371931657        0.0490416502       13.8292550471
  N         6.4390854433        0.0481251047       16.0344477351
 Ga         6.4379814950        2.0854039318       16.4409244354
 Ga         6.4569397422        3.7359301251        1.5138470553
  N         4.9475927169        4.6126657521        2.4945221891
 Ga         4.7108811323        2.7722440024        3.2731160296
  N         4.8287286341        2.8335856996        5.2288724642
 Ga         4.7917148392        4.7138264964        5.7639210412
  N         4.8237308018        4.6958647848        7.7697007411
 Ga         4.8367893297        2.8395424608        8.4011634387
  N         4.8403591723        2.8397310856       10.3973149158
 Ga         4.8150803638        4.6991503412       11.0314340266
  N         4.7983491847        4.7092483669       13.0275156516
 Ga         4.8400918662        2.8409098393       13.5826777680
  N         4.8136262923        2.8265420418       15.5465825084
 Ga         4.9923371257        4.5972678286       16.4418856446
  N         6.4463694872        3.7582146206       17.5745753050
  N         3.2128144692        7.6238950351        2.5060476361
  N         3.2241144243        5.6237467709        5.0159850092
 Ga         3.2289995110        7.4245159694        5.7743352282
  N         3.2209211771        7.4709371503        7.7725260850
 Ga         3.2220337009        5.6185333131        8.4083328025
  N         3.2220413827        5.6201342811       10.3857037045
 Ga         3.2227708643        7.4583743719       11.0348016739
  N         3.2216739229        7.4401968495       13.0301281457
 Ga         3.2219387380        5.6186874159       13.8282373409
  N         3.2232073195        5.6183506895       16.0343450172
 Ga         3.2223741336        7.6566799951       16.4418763979
 Ga         3.2406111579        9.3658190305        1.4907571943
  N         1.7136822502       10.1975816972        2.5042588086
 Ga         1.5768329305        8.3831806490        3.3175835238
  N         1.5993905591        8.3990018410        5.2368780672
 Ga         1.5867514039       10.2833943976        5.7848238483
  N         1.6038271848       10.2661511279        7.7723973337
 Ga         1.6249550546        8.4104003161        8.4130204365
  N         1.6239244452        8.4112415530       10.4032384259
 Ga         1.5985147838       10.2709478134       11.0356841279
  N         1.5818310000       10.2802144104       13.0298683301
 Ga         1.6243852754        8.4116301890       13.5847694550
  N         1.5968342592        8.3967197235       15.5480616203
 Ga         1.7772738591       10.1675220454       16.4428048819
  N         3.2308853390        9.3290711117       17.5742991733
  N         9.6672870927        1.9140233637        2.5875875340
 Ga         9.6650935038        0.1815471552        3.2732758510
  N         9.6523902442        0.0476880487        5.2292198365
 Ga         9.6654127000        1.9117713396        5.8474030333
  N         9.6551679108        1.9055072245        7.8213331132
 Ga         9.6566458111        0.0386315014        8.4071068506
  N         9.6541054942        0.0359836566       10.3998802190
 Ga         9.6547502390        1.9062787546       10.9907803627
  N         9.6539497535        1.9058640412       12.9640313334
 Ga         9.6536900185        0.0367971646       13.5844224072
  N         9.6526259385        0.0680930505       15.5477528984
 Ga         9.6540949691        1.9066648640       15.8263749561
  N         7.9440674547        4.6261021057        2.5044400712
 Ga         8.1643005369        2.7755084937        3.2800869633
  N         8.0490891932        2.8322500090        5.2343957704
 Ga         8.0728796632        4.7083427005        5.7667651196
  N         8.0555196991        4.6973913483        7.7649543286
 Ga         8.0368755275        2.8404242784        8.4044473108
  N         8.0353005154        2.8406964563       10.3989079809
 Ga         8.0610484550        4.7002432635       11.0332114902
  N         8.0775984686        4.7095710446       13.0290200208
 Ga         8.0346429235        2.8407462270       13.5838025634
  N         8.0618891051        2.8250990720       15.5484455322
 Ga         7.8911683643        4.6017054715       16.4414164536
  N         6.4067530757        7.4603672452        2.5104845093
 Ga         6.4350319460        5.7375069863        3.2622431577
  N         6.4387819103        5.6231059529        5.2176575750
 Ga         6.4437722515        7.4785072674        5.8416904743
  N         6.4379827549        7.4762695153        7.8148050311
 Ga         6.4374348639        5.6075215002        8.4042147742
  N         6.4387250124        5.6075031401       10.3986817641
 Ga         6.4390634442        7.4763603406       10.9902730389
  N         6.4383570689        7.4764851654       12.9637035739
 Ga         6.4371840022        5.6067802598       13.5832551273
  N         6.4364378450        5.6375306320       15.5470119296
 Ga         6.4385659028        7.4763252288       15.8258807488
  N         4.7290127528       10.2084835886        2.5012172389
 Ga         4.9387056412        8.3495466725        3.2705718236
  N         4.8305105447        8.4058440163        5.2225210874
 Ga         4.8625713273       10.2798831375        5.7694909225
  N         4.8393645933       10.2668465709        7.7661066242
 Ga         4.8213549672        8.4114871098        8.4055923515
  N         4.8199192356        8.4111968931       10.3996571873
 Ga         4.8464151670       10.2706340196       11.0334886608
  N         4.8614602420       10.2801785797       13.0292696808
 Ga         4.8190456679        8.4113049551       13.5838510035
  N         4.8467142327        8.3951540747       15.5484267052
 Ga         4.6749762753       10.1718986782       16.4416292982
  O         0.3081640190        3.7415233911       -0.5147838291
  H         0.0117377174        7.4653562091        1.6362812688
  C         0.3533632902        2.4550440730       -1.1545831684
  H         1.1488172461        1.8120529822       -0.7427390085
  H        -0.6026078334        1.9132818300       -1.0708068976
  H         0.5596150800        2.6231750499       -2.2221511770
 Ga         3.1959096991        5.5995021801        2.5392099533
  O         3.3125666406        5.8619761102        0.2679146242
  H         2.9323450375        5.1287900560       -0.2511191996
  C         4.6119002697        6.2625385958       -0.2442031582
  H         4.4833471625        6.9498607412       -1.0915796769
  H         5.1669260024        6.7600933032        0.5774796182
  H         5.1932301424        5.3891356292       -0.5770108046
