#p

 i =      154, E =     -8504.7308178951

0 1
  N         0.0012972958        2.0539226328        2.5025660477
 Ga        -0.0027976356        0.0935325531        2.8544269187
  N        -0.0058424020        0.0592942496        5.0083175819
 Ga        -0.0041516886        1.8911975010        5.7987510064
  N        -0.0063764580        1.9001303897        7.7939920549
 Ga        -0.0047247989        0.0559353651        8.4415130532
  N        -0.0046421675        0.0550655526       10.4128546091
 Ga        -0.0049634859        1.8939570098       11.0727504192
  N        -0.0055066034        1.8751431268       13.0611947684
 Ga        -0.0069932913        0.0572488849       13.8756463609
  N        -0.0062708120        0.0570620999       16.0664729261
 Ga        -0.0058632682        2.1066011437       16.4880927651
 Ga         0.0311516316        3.7356828389        1.3675793317
  N        -1.4726882133        4.6350411009        2.4718246080
 Ga        -1.6804956580        2.7963703219        3.2633866847
  N        -1.6146739784        2.8441914007        5.2404277745
 Ga        -1.6407007644        4.7063884877        5.8110152722
  N        -1.6244220226        4.7049428344        7.7989374212
 Ga        -1.6024737026        2.8450874927        8.4407891296
  N        -1.6022582964        2.8477323668       10.4293785831
 Ga        -1.6304861252        4.7063213806       11.0757855046
  N        -1.6461714629        4.7163903055       13.0630808857
 Ga        -1.6018225883        2.8472199565       13.6224214107
  N        -1.6285185353        2.8325719697       15.5786907049
 Ga        -1.4459420892        4.6008337851       16.4883370907
  N        -0.0001884555        3.7725483598       17.6350956911
  N        -3.2119669682        7.6028526630        2.5040452153
 Ga        -3.1961433002        5.6034622004        2.8517102844
  N        -3.2161498940        5.6242362497        5.0063167138
 Ga        -3.2282354931        7.4469540315        5.7998014449
  N        -3.2199461023        7.4729620864        7.7873899535
 Ga        -3.2230310726        5.6259625209        8.4471560136
  N        -3.2218782663        5.6277095854       10.4158361572
 Ga        -3.2233934440        7.4659786564       11.0739735158
  N        -3.2215808707        7.4460360039       13.0638051704
 Ga        -3.2214810865        5.6239196697       13.8771702242
  N        -3.2213228933        5.6257604833       16.0670331451
 Ga        -3.2215591053        7.6660551943       16.4758498207
 Ga        -3.2488286136        9.3607856357        1.4381673839
  N        -4.7263797460       10.2116720898        2.5141976315
 Ga        -4.9343366553        8.3526820141        3.2668701123
  N        -4.8301937443        8.4088786438        5.2304892924
 Ga        -4.8552376408       10.2847208666        5.7892851186
  N        -4.8377388804       10.2737288790        7.7836018017
 Ga        -4.8227191842        8.4177312743        8.4323287510
  N        -4.8179703385        8.4182710808       10.4228490707
 Ga        -4.8449196921       10.2768299138       11.0710669870
  N        -4.8615656737       10.2870491117       13.0620082128
 Ga        -4.8188025273        8.4181913360       13.6228828552
  N        -4.8492239156        8.4009159490       15.5821653713
 Ga        -4.6722972879       10.1785607276       16.4754092265
  N        -3.2217862895        9.3412482782       17.5920778734
  N         3.1953486229        1.9296573437        2.5912337695
 Ga         3.2064454028        0.1842908727        3.2721456004
  N         3.2140703491        0.0596662173        5.2354781704
 Ga         3.2097099983        1.9227918524        5.8724153399
  N         3.2133914884        1.9133117213        7.8447213666
 Ga         3.2089858838        0.0472184499        8.4372372733
  N         3.2109249117        0.0422010680       10.4264889976
 Ga         3.2108636081        1.9116258688       11.0305363299
  N         3.2112121756        1.9120782703       12.9967415708
 Ga         3.2108412583        0.0439224079       13.6221840112
  N         3.2108121134        0.0791931939       15.5816285625
 Ga         3.2110850270        1.9174551840       15.8607615658
  N         1.4711423526        4.6378807290        2.5134295746
 Ga         1.6851264912        2.8122504108        3.2946767422
  N         1.6034161042        2.8461250111        5.2570534492
 Ga         1.6537440054        4.7208021969        5.8244400983
  N         1.6016868770        4.7000259437        7.8232202939
 Ga         1.5918034199        2.8444509482        8.4447379657
  N         1.5921038974        2.8444797505       10.4337058790
 Ga         1.6198521327        4.7061665041       11.0725745302
  N         1.6351018199        4.7164467677       13.0627763338
 Ga         1.5912403341        2.8474013051       13.6226409594
  N         1.6165676460        2.8311995658       15.5801293120
 Ga         1.4395178171        4.6039839036       16.4882799115
  N        -0.0044893051        7.4714309469        2.6889414273
 Ga         0.0088511226        5.6189252186        3.3403156477
  N        -0.0070844189        5.6398123827        5.2656355023
 Ga         0.0016109642        7.4785143060        5.9078707447
  N        -0.0036867953        7.4859662275        7.8612120604
 Ga        -0.0066442958        5.6113787170        8.4557443594
  N        -0.0081504640        5.6153985642       10.4395707703
 Ga        -0.0065625974        7.4840041031       11.0353068461
  N        -0.0058773121        7.4841837767       12.9997336441
 Ga        -0.0052032941        5.6127875073       13.6236525203
  N        -0.0072171393        5.6438376400       15.5808595585
 Ga        -0.0014805435        7.4815956591       15.8613840992
  N        -1.7119537705       10.2053944996        2.5105944568
 Ga        -1.5953408790        8.4007015632        3.3249790097
  N        -1.5990076752        8.4059440384        5.2496722874
 Ga        -1.5893832026       10.2925615116        5.8058855353
  N        -1.6038826262       10.2729191813        7.7914217431
 Ga        -1.6257802927        8.4190103064        8.4470991801
  N        -1.6256942096        8.4189139103       10.4315084615
 Ga        -1.5982556574       10.2789530940       11.0742105373
  N        -1.5803185544       10.2878171054       13.0639120568
 Ga        -1.6244133380        8.4184639638       13.6235481521
  N        -1.5935215712        8.4008318855       15.5827647461
 Ga        -1.7709121318       10.1784760360       16.4756285820
  N         6.4275134911        2.0373396982        2.5326083761
 Ga         6.4295635165        0.0643142560        2.8840062844
  N         6.4292913190        0.0561712091        5.0172309941
 Ga         6.4213714101        1.8950951041        5.7976637906
  N         6.4260791518        1.9007909973        7.7897545555
 Ga         6.4276369190        0.0579249398        8.4459544699
  N         6.4272050061        0.0558823897       10.4147619118
 Ga         6.4283039297        1.8956242017       11.0733226518
  N         6.4281796471        1.8753707810       13.0612749743
 Ga         6.4295823206        0.0578369616       13.8776351651
  N         6.4283908893        0.0571859870       16.0670956940
 Ga         6.4279103251        2.1069365896       16.4884287431
 Ga         6.4678302121        3.7418066242        1.4893236652
  N         4.9247796387        4.6372546519        2.4142798568
 Ga         4.6984425461        2.8131196891        3.2733973971
  N         4.8183092572        2.8500387706        5.2326222278
 Ga         4.7758730968        4.7248138773        5.8162946894
  N         4.8211127830        4.6977399894        7.8172958470
 Ga         4.8303003853        2.8459650407        8.4478685210
  N         4.8306862675        2.8448771322       10.4347559550
 Ga         4.8043275642        4.7076183320       11.0711705694
  N         4.7880648108        4.7166083073       13.0616278160
 Ga         4.8311801968        2.8476133462       13.6222411702
  N         4.8055899833        2.8312626788       15.5797862555
 Ga         4.9824369205        4.6042145651       16.4879203547
  N         6.4220133551        3.7731099449       17.6348344367
  N         3.2052063898        7.6012950704        2.4110402232
  N         3.2125994923        5.6305112833        5.1458257114
 Ga         3.2198106438        7.4270126062        5.8273757057
  N         3.2102020970        7.4875763542        7.8208015358
 Ga         3.2123440756        5.6260779471        8.4432348248
  N         3.2116392070        5.6274144921       10.4192061718
 Ga         3.2131936532        7.4650786178       11.0738481547
  N         3.2116669325        7.4470951808       13.0631979274
 Ga         3.2117100250        5.6263466951       13.8751137637
  N         3.2111336377        5.6270369227       16.0662855189
 Ga         3.2112277498        7.6732385588       16.4888876372
 Ga         3.2372449659        9.3904126487        1.4431774906
  N         1.7082872841       10.1948811705        2.5160779321
 Ga         1.6039693053        8.3684738370        3.3148649768
  N         1.5987905173        8.4017599008        5.2395084036
 Ga         1.5804926450       10.2836123066        5.8050418183
  N         1.5922008460       10.2723500093        7.7914664147
 Ga         1.6157740839        8.4219173339        8.4587577915
  N         1.6120529013        8.4205895695       10.4403947429
 Ga         1.5880176630       10.2800306148       11.0763810308
  N         1.5710905086       10.2883822962       13.0631135163
 Ga         1.6149548994        8.4191085019       13.6240596423
  N         1.5871153973        8.4055180948       15.5810493485
 Ga         1.7717103700       10.1728529993       16.4892392583
  N         3.2115238197        9.3351425061       17.6359966652
  N         9.6535719505        1.9174186076        2.6062094881
 Ga         9.6522514737        0.1776381134        3.2891015113
  N         9.6423667707        0.0555658847        5.2461242340
 Ga         9.6519005783        1.9162496697        5.8756024300
  N         9.6436394383        1.9122251391        7.8449445349
 Ga         9.6459119811        0.0442702954        8.4360501081
  N         9.6434314931        0.0425254500       10.4255329778
 Ga         9.6427353382        1.9127691683       11.0258749796
  N         9.6428601043        1.9127489680       12.9945269629
 Ga         9.6438998902        0.0434127906       13.6234093812
  N         9.6435993119        0.0745006113       15.5792556057
 Ga         9.6433494224        1.9133226373       15.8556588424
  N         7.9303192715        4.6342397447        2.5232064907
 Ga         8.1483280733        2.7823211144        3.2997873543
  N         8.0391428640        2.8398816579        5.2527374061
 Ga         8.0534556156        4.7161566108        5.7915032181
  N         8.0456672890        4.7068539264        7.7859383208
 Ga         8.0250547983        2.8483848616        8.4336762715
  N         8.0240651742        2.8482923013       10.4243028478
 Ga         8.0505800079        4.7065634378       11.0732234356
  N         8.0679129859        4.7162487009       13.0612004630
 Ga         8.0239432528        2.8479081136       13.6229514654
  N         8.0507958492        2.8328172795       15.5790775921
 Ga         7.8679830988        4.6011621235       16.4885269626
  N         6.4219688765        7.4791532528        2.5751068327
 Ga         6.3982378825        5.7381966878        3.2667998428
  N         6.4209119100        5.6232127849        5.2264557516
 Ga         6.4190034442        7.4792120667        5.8606950714
  N         6.4254045624        7.4831112742        7.8338986728
 Ga         6.4293495827        5.6159229082        8.4438919090
  N         6.4303698161        5.6160620534       10.4316968895
 Ga         6.4290223164        7.4840689060       11.0303492627
  N         6.4282176116        7.4839906789       12.9961966410
 Ga         6.4279310745        5.6134362900       13.6227743745
  N         6.4294846809        5.6439580009       15.5800964394
 Ga         6.4234747499        7.4815515210       15.8616547916
  N         4.7155074675       10.2078983933        2.5165631982
 Ga         4.9050064578        8.3335202677        3.2631942061
  N         4.8092167246        8.4092349048        5.2244141240
 Ga         4.8470175243       10.2776333946        5.7919163018
  N         4.8304698309       10.2731388998        7.7859475015
 Ga         4.8124568030        8.4207187153        8.4460554586
  N         4.8115698964        8.4198690177       10.4327419119
 Ga         4.8353969620       10.2782851387       11.0731494434
  N         4.8512397443       10.2878885681       13.0610729853
 Ga         4.8084224307        8.4191521108       13.6232903228
  N         4.8352286402        8.4056433271       15.5803777478
 Ga         4.6510256958       10.1728750718       16.4889951649
  O         0.7144443722        3.8559532069       -0.3738688680
  H        -0.0103859236        7.4575726563        1.6628542638
  C         1.1433268011        2.5937148268       -0.9351629749
  H         1.8451654119        2.0655025738       -0.2673924737
  H         0.2846946246        1.9357980807       -1.1351419004
  H         1.6471229432        2.8042157004       -1.8894724824
 Ga         3.1695859645        5.5907337720        2.2622460904
  O         2.8252041975        5.4650499364        0.1339544893
  H         2.0512114281        4.8300220222       -0.0635188357
  C         3.8939795793        5.2532858218       -0.8090189539
  H         3.5309579686        5.4257484948       -1.8311229183
  H         4.6876244926        5.9735582252       -0.5753559200
  H         4.2974057261        4.2317485833       -0.7284586163
