      16
 i =        1, E =      -673.2572595150
 Ga         0.0005781871       -0.0003336617        0.1437536084
  N         0.0001611741        1.9206155162        0.5760967822
 Ga         0.0007555206        1.9202712108        2.6074711500
  N         0.0003858156       -0.0002229748        3.2293195359
 Ga         0.0001481111       -0.0000822055        5.1434680243
  N         0.0006387574        1.9203345220        5.8098814950
 Ga         0.0007319869        1.9202686166        7.7666825023
  N         0.0001924586       -0.0000639371        8.3985348223
 Ga         0.0000977823       -0.0001763935       10.3617234613
  N         0.0008173761        1.9200589220       10.9784016126
 Ga         0.0010182274        1.9212876464       12.9527408862
  N        -0.0001915003       -0.0005683182       13.5628530593
 Ga         0.0001819105        0.0007327722       15.5340509349
  N         0.0009561454        1.9192974094       16.1449807021
 Ga         0.0009318923        1.9202662898       18.3505234233
  N        -0.0002031443       -0.0001753215       18.8011267984
      16
 i =        2, E =      -638.7726268539
 Ga         0.0012949816       -0.0009110377        0.1902273975
  N         0.0001819031        2.0638555620        0.5823731653
 Ga         0.0013052812        2.0632755076        2.6161448215
  N         0.0011935230       -0.0005248278        3.2745633954
 Ga         0.0004986195       -0.0003539107        5.0763448881
  N         0.0010179582        2.0632170779        5.8322014885
 Ga         0.0014900982        2.0632174610        7.7171138731
  N         0.0005610274       -0.0002767506        8.4056841080
 Ga         0.0003006621       -0.0005431298       10.3297692614
  N         0.0015505351        2.0628093144       10.9555084345
 Ga         0.0019563571        2.0646783066       12.9286644457
  N        -0.0002619971       -0.0009606331       13.5071134984
 Ga         0.0004200694        0.0005867084       15.5479194669
  N         0.0020893635        2.0619483782       16.0920168702
 Ga         0.0016538422        2.0635371102       18.4995854286
  N        -0.0002013932       -0.0007384589       18.8093859959
