       6
 i =      150, E =       -34.4518132155
  O        -2.1226408948        0.9214160919       -1.2010150200
  H        -2.1707947137        1.8789502972       -1.0721888573
  H        -0.2476287286        0.1828136733       -0.3332259656
  O         0.5482801825       -0.0892980799       -0.0061608895
  H         0.5358646570        0.1317685075        0.9359066113
  H         2.0479330398        0.5823446043       -0.7835404395
