       6
 i =        2, E =       -34.4580833633
  O        -1.3950569998       -0.1835522699       -0.9292602434
  H        -1.3957645903        0.5547001979       -1.5567984610
  H        -0.5284872884       -0.0946037651       -0.4671075301
  O         1.1156457624        0.0907832625        0.4651881664
  H         1.1140942736       -0.6545058254        1.0843117814
  H         1.9834279850        0.0013769617       -0.0029022724
