       6
 i =        6, E =       -34.4580833846
  O        -1.3950843747       -0.1834585667       -0.9292168055
  H        -1.3958004034        0.5548034283       -1.5567393087
  H        -0.5285207325       -0.0945989127       -0.4670385267
  O         1.1156581343        0.0909679920        0.4653156635
  H         1.1140814063       -0.6545530800        1.0841663884
  H         1.9833915934        0.0013132736       -0.0028271527
