       6
 i =        1, E =       -24.0758523779
  H         3.1990396873        4.7799205568       20.4173006464
  H         4.1288420213        3.1790893974       20.3631498824
  H         2.3118919248        3.2064022565       20.6085187865
  C         3.2826135227        3.7324864328       20.8908035475
  O         3.4769258260        3.7859172061       22.3012186677
  H         4.4130180164        3.5888964471       22.4575076377
       6
 i =        2, E =       -24.0770918233
  H         3.2224609133        4.7370877581       20.4543776003
  H         4.0809212212        3.2053405017       20.3675315383
  H         2.3744383040        3.2166115200       20.6691308158
  C         3.2802882022        3.7429419385       20.8330695250
  O         3.4611305841        3.7702682139       22.2542279348
  H         4.3926685355        3.6005547750       22.4601844519
       6
 i =        3, E =       -24.0798595890
  H         3.2203171686        4.7572730866       20.4377428541
  H         4.0987351626        3.1959691929       20.3497332890
  H         2.3419992970        3.2064643307       20.6479498251
  C         3.2858855624        3.7375167379       20.8569951250
  O         3.4650873192        3.7731165227       22.2799433493
  H         4.3999517502        3.6026200439       22.4661519443
       6
 i =        4, E =       -24.0799371375
  H         3.2228048923        4.7518121284       20.4385168601
  H         4.0953845778        3.1976686615       20.3436717216
  H         2.3421060923        3.2118897932       20.6447349667
  C         3.2844984086        3.7333495267       20.8573778120
  O         3.4655104123        3.7690209947       22.2823582165
  H         4.4016341073        3.6094331692       22.4718471064
       6
 i =        5, E =       -24.0800053667
  H         3.2265954915        4.7492439338       20.4407517225
  H         4.0900043081        3.1954522736       20.3369164198
  H         2.3417531757        3.2156949099       20.6429306173
  C         3.2859660787        3.7327632027       20.8551100886
  O         3.4637231974        3.7574279106       22.2839347609
  H         4.4038615471        3.6229425898       22.4788021824
       6
 i =        6, E =       -24.0801199279
  H         3.2390248824        4.7487822201       20.4494398586
  H         4.0823438256        3.1872010256       20.3248435140
  H         2.3362887385        3.2247347847       20.6385225883
  C         3.2866989605        3.7268993552       20.8502390093
  O         3.4587898847        3.7286589536       22.2852993995
  H         4.4088336275        3.6577519196       22.4899113428
       6
 i =        7, E =       -24.0802231496
  H         3.2551973579        4.7497992349       20.4629319868
  H         4.0740211968        3.1723509100       20.3126379964
  H         2.3293615742        3.2375695572       20.6317961103
  C         3.2895492956        3.7208640617       20.8473694328
  O         3.4521162259        3.6915727480       22.2870265649
  H         4.4117315586        3.7026349626       22.4961801098
       6
 i =        8, E =       -24.0804374074
  H         3.2655201251        4.7536072669       20.4721415469
  H         4.0718751089        3.1619647365       20.3122325584
  H         2.3236588938        3.2434558091       20.6280930487
  C         3.2899934631        3.7181233021       20.8471723777
  O         3.4528949877        3.6786594686       22.2843554965
  H         4.4081417343        3.7195820818       22.4938019228
       6
 i =        9, E =       -24.0807787162
  H         3.3047966628        4.7571973801       20.4984180015
  H         4.0598764287        3.1294337595       20.3075570717
  H         2.3099331714        3.2731409736       20.6180038033
  C         3.2943997513        3.7096406544       20.8519108163
  O         3.4485440528        3.6217114584       22.2806858284
  H         4.3945603926        3.7857367173       22.4804437684
       6
 i =       10, E =       -24.0806248702
  H         3.3136985685        4.7544396045       20.4979583058
  H         4.0600511612        3.1273227006       20.3180187831
  H         2.3094091949        3.2803612010       20.6199322820
  C         3.2936789457        3.7104881237       20.8584860157
  O         3.4556871492        3.6291733842       22.2751496079
  H         4.3796072967        3.7746160233       22.4672045462
       6
 i =       11, E =       -24.0809955552
  H         3.3271806855        4.7530677680       20.5059681641
  H         4.0517482341        3.1208022829       20.3083070548
  H         2.3022817523        3.2888592546       20.6141389874
  C         3.2917837771        3.7041634183       20.8527165024
  O         3.4556055414        3.6016893605       22.2733686518
  H         4.3837830369        3.8084710529       22.4821369184
       6
 i =       12, E =       -24.0810516840
  H         3.3328885927        4.7497906234       20.5087396985
  H         4.0471611544        3.1160431734       20.3005686342
  H         2.3024483804        3.2967847243       20.6143086909
  C         3.2955082463        3.7030633727       20.8528894578
  O         3.4553867114        3.5924463833       22.2743907576
  H         4.3791316202        3.8192856271       22.4856402595
       6
 i =       13, E =       -24.0811232706
  H         3.3498827056        4.7456802906       20.5138144430
  H         4.0372832490        3.1074995353       20.2889036496
  H         2.2996480405        3.3115061024       20.6148484344
  C         3.2986276130        3.6993512975       20.8511324422
  O         3.4585173058        3.5744500405       22.2725921391
  H         4.3686634895        3.8393336429       22.4949720279
       6
 i =       14, E =       -24.0811565155
  H         3.3635047703        4.7444196983       20.5175115575
  H         4.0306780107        3.0999240507       20.2827962110
  H         2.2962332421        3.3227909398       20.6150077172
  C         3.3004228983        3.6971727820       20.8499860249
  O         3.4617960848        3.5623456666       22.2705449907
  H         4.3600077086        3.8514841468       22.5001926599
       6
 i =       15, E =       -24.0811589325
  H         3.3817866635        4.7440851471       20.5247818549
  H         4.0231254924        3.0885789509       20.2774529538
  H         2.2905156938        3.3372163047       20.6131496195
  C         3.3018691057        3.6938553528       20.8488979893
  O         3.4650181648        3.5434878320       22.2674020658
  H         4.3504728922        3.8714318917       22.5041186774
       6
 i =       16, E =       -24.0811684968
  H         3.3795134401        4.7442582397       20.5232504880
  H         4.0241197223        3.0900688940       20.2783637181
  H         2.2915460732        3.3359240301       20.6138504767
  C         3.3018128682        3.6948864020       20.8487672552
  O         3.4654158448        3.5479090276       22.2677172495
  H         4.3503724671        3.8653832089       22.5038847319
       6
 i =       17, E =       -24.0811694276
  H         3.3800955220        4.7439273626       20.5238291775
  H         4.0239196264        3.0898997037       20.2779026005
  H         2.2915322968        3.3364572831       20.6134501325
  C         3.3019464792        3.6946113700       20.8487505741
  O         3.4651917537        3.5466225080       22.2677372457
  H         4.3500617800        3.8667106685       22.5041265773
       6
 i =       18, E =       -24.0811694276
  H         3.3800955220        4.7439273626       20.5238291775
  H         4.0239196264        3.0898997037       20.2779026005
  H         2.2915322968        3.3364572831       20.6134501325
  C         3.3019464792        3.6946113700       20.8487505741
  O         3.4651917537        3.5466225080       22.2677372457
  H         4.3500617800        3.8667106685       22.5041265773
