#p

i =       91, E =     -8504.8484892642

0 1
 N                  0.06577450    2.11555353    2.56126561
 Ga                 0.05445100    0.14340087    2.95327965
 N                  0.06058443    0.13934180    5.11761768
 Ga                 0.06126545    1.95265670    5.87444832
 N                  0.07920024    1.97733732    7.86379788
 Ga                 0.07920387    0.12358660    8.48944576
 N                  0.07862818    0.12582381   10.46624999
 Ga                 0.07641713    1.96557182   11.11817481
 N                  0.07618299    1.94751706   13.11381929
 Ga                 0.07644709    0.12668155   13.91573915
 N                  0.07666475    0.12612640   16.11879316
 Ga                 0.07462061    2.16247307   16.52653997
 Ga                 0.03298736    3.84942602    1.38574263
 N                 -1.41490721    4.70590651    2.56584411
 Ga                -1.61642472    2.87122694    3.32999509
 N                 -1.52855937    2.91702205    5.31367492
 Ga                -1.56456396    4.78184346    5.86072358
 N                 -1.53879459    4.77719930    7.85733805
 Ga                -1.52558453    2.91947504    8.49221605
 N                 -1.52027880    2.91977343   10.48662287
 Ga                -1.54719645    4.77976222   11.11768031
 N                 -1.56383134    4.78895922   13.11302641
 Ga                -1.52094596    2.92020990   13.66886304
 N                 -1.54847733    2.90646808   15.63230409
 Ga                -1.37231841    4.67728323   16.52688013
 N                  0.08220965    3.83675125   17.66070013
 N                 -3.14011490    7.61744387    2.52065140
 Ga                -3.13930097    5.68140959    2.91046717
 N                 -3.14041755    5.68559146    5.09219664
 Ga                -3.13981291    7.52260331    5.81602595
 N                 -3.13956379    7.54835971    7.82599438
 Ga                -3.13954345    5.70515813    8.48936207
 N                 -3.13959291    5.70135364   10.46688868
 Ga                -3.13931742    7.53946010   11.11736882
 N                 -3.14011101    7.51972634   13.11217921
 Ga                -3.13966088    5.69949209   13.91489809
 N                 -3.13990413    5.69881435   16.11888727
 Ga                -3.14105847    7.74062922   16.53204728
 Ga                -3.14243558    9.12848074    0.75551092
 N                 -4.72917684   10.31600772    2.54395650
 Ga                -4.73162082    8.49360011    3.25653102
 N                 -4.75665210    8.47825010    5.24557969
 Ga                -4.79005762   10.35164610    5.82721115
 N                 -4.75181428   10.34420955    7.82879029
 Ga                -4.73271252    8.48977200    8.47920388
 N                 -4.73545279    8.49044431   10.47518485
 Ga                -4.76215441   10.34759563   11.11770096
 N                 -4.77929787   10.35830846   13.11178191
 Ga                -4.73721949    8.49030957   13.67037298
 N                 -4.76547774    8.47547513   15.63169262
 Ga                -4.58302597   10.24423354   16.53315355
 N                 -3.13358043    9.40818985   17.66731158
 N                  3.29213681    2.17698951    2.52893530
 Ga                 3.29246089   -0.13162507    3.30279069
 N                  3.29246088    0.14114838    5.23701949
 Ga                 3.29294197    1.96893904    5.93099618
 N                  3.29265880    1.97870638    7.89527150
 Ga                 3.29287276    0.10939590    8.48502833
 N                  3.29271875    0.11403464   10.47767568
 Ga                 3.29311791    1.98178257   11.07940755
 N                  3.29170935    1.98354854   13.05021063
 Ga                 3.29161827    0.11393156   13.67143709
 N                  3.28963508    0.14697311   15.63265480
 Ga                 3.29125933    1.98466961   15.91214173
 N                  1.55953803    4.70245331    2.55955750
 Ga                 1.61192077    2.92127995    3.38616595
 N                  1.70007696    2.90187568    5.30595454
 Ga                 1.71562792    4.79155497    5.86401280
 N                  1.69309125    4.77220200    7.85244255
 Ga                 1.67594952    2.91654656    8.49680786
 N                  1.67634017    2.91877254   10.48631318
 Ga                 1.69942493    4.77875964   11.12123469
 N                  1.71562925    4.78839184   13.11532411
 Ga                 1.67220711    2.91932401   13.67042675
 N                  1.69884452    2.90463045   15.63483286
 Ga                 1.52789758    4.68101333   16.52710132
 N                  0.08432328    7.55156025    2.71541182
 Ga                 0.06308728    5.71161082    3.36973621
 N                  0.07807966    5.71187179    5.30919725
 Ga                 0.06596106    7.56599999    5.92693456
 N                  0.07485182    7.55757117    7.89754855
 Ga                 0.07466031    5.68892328    8.49102595
 N                  0.07781561    5.68639561   10.48326169
 Ga                 0.07554575    7.55588207   11.07515798
 N                  0.07504449    7.55529630   13.04769641
 Ga                 0.07504480    5.68626219   13.66954658
 N                  0.07359719    5.71620475   15.63280531
 Ga                 0.07539358    7.55577983   15.91153522
 N                 -1.55033838   10.31669509    2.54329300
 Ga                -1.54852281    8.49430301    3.25590651
 N                 -1.52300168    8.47842933    5.24519243
 Ga                -1.48924368   10.35200815    5.82646946
 N                 -1.52708721   10.34427651    7.82826963
 Ga                -1.54648624    8.49002745    8.47934843
 N                 -1.54293734    8.49014962   10.47555860
 Ga                -1.51719729   10.34725176   11.11828103
 N                 -1.50103212   10.35829204   13.11277273
 Ga                -1.54366693    8.49015937   13.67086894
 N                 -1.51604625    8.47351891   15.63336704
 Ga                -1.69254836   10.24816807   16.53227753
 N                  6.51940944    2.11732811    2.55856939
 Ga                 6.53095811    0.14286941    2.95163262
 N                  6.52485022    0.13995942    5.11643323
 Ga                 6.52389138    1.95284322    5.87443297
 N                  6.50629561    1.97733503    7.86363051
 Ga                 6.50636688    0.12355726    8.48929463
 N                  6.50640954    0.12563837   10.46616609
 Ga                 6.50928767    1.96554721   11.11819155
 N                  6.50778402    1.94739745   13.11385107
 Ga                 6.50850745    0.12657976   13.91632561
 N                  6.50848862    0.12638888   16.11916089
 Ga                 6.50773474    2.16445381   16.52806353
 Ga                 6.55725989    3.84212785    1.37968668
 N                  5.02452218    4.70196138    2.56141604
 Ga                 4.97240545    2.92324144    3.38501690
 N                  4.88552288    2.90133618    5.30527676
 Ga                 4.86970978    4.79137610    5.86276638
 N                  4.89222177    4.77217340    7.85164145
 Ga                 4.90945205    2.91654424    8.49644069
 N                  4.90944671    2.91898859   10.48577073
 Ga                 4.88564698    4.77901942   11.12084980
 N                  4.86831143    4.78825800   13.11450043
 Ga                 4.91084953    2.91917276   13.67036330
 N                  4.88243378    2.90564632   15.63312464
 Ga                 5.06251649    4.67626915   16.52942620
 N                  6.51493069    3.83675721   17.66023583
 N                  3.29273673    7.65267475    2.56554006
 N                  3.29216443    5.68950024    5.08775101
 Ga                 3.29229789    7.51993147    5.84845265
 N                  3.29261384    7.54366340    7.84488014
 Ga                 3.29276461    5.69906762    8.49637453
 N                  3.29242661    5.69798461   10.46928682
 Ga                 3.29286620    7.53756591   11.12111953
 N                  3.29191378    7.51848619   13.11483032
 Ga                 3.29236371    5.69896097   13.91747213
 N                  3.29280878    5.69847065   16.11981809
 Ga                 3.29131918    7.74043929   16.53161383
 Ga                 3.29337038    9.49390746    1.30139550
 N                  1.78888773   10.28840909    2.58189080
 Ga                 1.68850358    8.48689087    3.33861581
 N                  1.67483987    8.47568218    5.29082550
 Ga                 1.66777492   10.35742635    5.85816161
 N                  1.67709649   10.34095542    7.85603451
 Ga                 1.69447676    8.48822154    8.49086043
 N                  1.69587077    8.48775200   10.48324340
 Ga                 1.66929305   10.34852369   11.11724647
 N                  1.65181391   10.35842912   13.11237390
 Ga                 1.69402712    8.49031815   13.66991041
 N                  1.66661267    8.47541448   15.63173575
 Ga                 1.84856827   10.24521062   16.53169515
 N                  3.29862084    9.40856856   17.66729104
 N                  9.72441898    1.98976572    2.69539227
 Ga                 9.72483161    0.22262675    3.31891083
 N                  9.72494512    0.12641169    5.30666677
 Ga                 9.72511114    1.98478891    5.91634897
 N                  9.72492028    1.98420535    7.90286987
 Ga                 9.72513299    0.11795102    8.49009257
 N                  9.72501300    0.11513570   10.48537388
 Ga                 9.72574198    1.98418697   11.07810659
 N                  9.72464791    1.98473195   13.05095755
 Ga                 9.72391832    0.11442397   13.66965238
 N                  9.72212715    0.14662728   15.63168892
 Ga                 9.72395519    1.98475224   15.90965661
 N                  7.99802528    4.70310056    2.55948693
 Ga                 8.20145312    2.87094734    3.33140227
 N                  8.11371160    2.91729947    5.31376812
 Ga                 8.14912804    4.78217520    5.86148112
 N                  8.12407937    4.77711629    7.85766038
 Ga                 8.11109134    2.91944708    8.49251103
 N                  8.10649241    2.91936400   10.48708842
 Ga                 8.13266327    4.77955262   11.11809499
 N                  8.14814612    4.78903827   13.11381093
 Ga                 8.10484784    2.91988357   13.66949227
 N                  8.13226059    2.90426392   15.63377006
 Ga                 7.95876972    4.67984668   16.52789532
 N                  6.50075078    7.55053574    2.71506387
 Ga                 6.52005591    5.70953055    3.36689194
 N                  6.50748055    5.71129030    5.30734392
 Ga                 6.51916940    7.56489735    5.92652958
 N                  6.51038927    7.55728851    7.89735389
 Ga                 6.51068329    5.68875266    8.49103052
 N                  6.50760357    5.68633026   10.48324091
 Ga                 6.51095157    7.55600366   11.07500723
 N                  6.50912248    7.55561349   13.04721298
 Ga                 6.50826159    5.68660339   13.66983219
 N                  6.50598477    5.71717537   15.63271589
 Ga                 6.50773232    7.55603321   15.91156732
 N                  4.79644478   10.28838381    2.58184128
 Ga                 4.89728757    8.48665393    3.33862724
 N                  4.91020683    8.47519794    5.29087079
 Ga                 4.91760565   10.35698768    5.85856158
 N                  4.90845239   10.34092067    7.85628856
 Ga                 4.89093502    8.48826923    8.49089787
 N                  4.89001141    8.48752774   10.48350923
 Ga                 4.91612753   10.34832488   11.11755500
 N                  4.93227428   10.35857955   13.11306624
 Ga                 4.88944096    8.49025989   13.67030717
 N                  4.91578953    8.47407605   15.63334922
 Ga                 4.73989007   10.24875619   16.53112079
 O                  0.13792289    3.77904221   -0.42436832
 C                 -0.98295008    3.16711672   -1.08869611
 H                 -1.18615528    2.14811909   -0.71949466
 H                 -1.90341787    3.76323377   -0.97653541
 H                 -0.73599416    3.10758012   -2.15855119
 Ga                 3.29457817    5.68838699    2.91021391
 H                  0.11780004    7.51826470    1.68949225
 C                  3.28956904    1.93169003    1.25950989
 H                  4.22860041    1.81721748    0.69875468
 H                  2.34788361    1.81491859    0.70328147

