#p

i =       12, E =     -8504.8072218726

0 1
 N                  0.06858617    2.13917222    2.55038499
 Ga                 0.10840693    0.19662959    2.98402024
 N                  0.09863991    0.14250908    5.07912869
 Ga                 0.07710649    1.96717173    5.84310987
 N                  0.07084741    1.97663427    7.83935219
 Ga                 0.06710761    0.12310575    8.47160179
 N                  0.06998323    0.12250233   10.45000222
 Ga                 0.07640155    1.95774466   11.11983461
 N                  0.07382647    1.94017603   13.10937112
 Ga                 0.07596752    0.12216192   13.92151877
 N                  0.07455913    0.12243251   16.11403018
 Ga                 0.07363727    2.17293113   16.53421436
 Ga                 0.15005620    3.85203890    1.41909182
 N                 -1.38922593    4.71725111    2.53560590
 Ga                -1.61830641    2.89509995    3.28119624
 N                 -1.55322165    2.90881859    5.26219418
 Ga                -1.56448186    4.77617308    5.86799362
 N                 -1.54394458    4.76858364    7.85541481
 Ga                -1.51473515    2.91556788    8.51113683
 N                 -1.51983654    2.91720214   10.49290259
 Ga                -1.54887259    4.77705613   11.12907778
 N                 -1.56707668    4.78368278   13.11657987
 Ga                -1.52365267    2.91222643   13.66825651
 N                 -1.54929755    2.89531429   15.62687867
 Ga                -1.37118501    4.66860594   16.53374166
 N                  0.06716336    3.83774912   17.67849147
 N                 -3.11776998    7.68069555    2.57936387
 Ga                -3.09696415    5.67092525    2.94714980
 N                 -3.12885845    5.70705118    5.09722058
 Ga                -3.14189993    7.53158552    5.85834553
 N                 -3.13984258    7.54762092    7.84520558
 Ga                -3.13798415    5.70426723    8.50609178
 N                 -3.14050729    5.69561748   10.47334229
 Ga                -3.14756047    7.53570649   11.12004710
 N                 -3.14504731    7.51383355   13.11022986
 Ga                -3.14456685    5.69371619   13.92619428
 N                 -3.14403404    5.69247590   16.11308496
 Ga                -3.14405807    7.73868258   16.53387734
 Ga                -3.14410681    9.44304527    1.60088181
 N                 -4.62812608   10.29108945    2.59556184
 Ga                -4.87278533    8.40556732    3.31169784
 N                 -4.74777935    8.48002703    5.27215342
 Ga                -4.76512764   10.35379350    5.84512227
 N                 -4.75753834   10.34418049    7.83719559
 Ga                -4.75459349    8.48380418    8.46583093
 N                 -4.74479174    8.48337587   10.46207922
 Ga                -4.76996673   10.34318336   11.10944367
 N                 -4.78449103   10.35259496   13.10226824
 Ga                -4.74148054    8.48603393   13.66836985
 N                 -4.76860368    8.47165557   15.62653686
 Ga                -4.58323686   10.23818446   16.53445597
 N                 -3.14436022    9.39987819   17.67743998
 N                  3.31949031    2.01408293    2.65675479
 Ga                 3.31985199    0.27706990    3.34875759
 N                  3.30133647    0.13172255    5.30701442
 Ga                 3.31472441    2.00485114    5.89700995
 N                  3.29986931    1.98803739    7.88121193
 Ga                 3.28646566    0.12187445    8.48812561
 N                  3.28746224    0.11415060   10.47811886
 Ga                 3.28701599    1.98007201   11.08346670
 N                  3.28830925    1.97884188   13.04998235
 Ga                 3.28725361    0.10652679   13.66787174
 N                  3.28751675    0.13924989   15.62488049
 Ga                 3.28852834    1.97816880   15.89949755
 N                  1.56209631    4.71104784    2.64582500
 Ga                 1.77858236    2.87447817    3.34032290
 N                  1.68974018    2.91188951    5.31191875
 Ga                 1.70050083    4.77089848    5.88900730
 N                  1.68797174    4.77194241    7.86731030
 Ga                 1.67696249    2.90931990    8.48500349
 N                  1.67186428    2.91154836   10.47634585
 Ga                 1.69913285    4.77452510   11.11358412
 N                  1.71367648    4.78313881   13.10561338
 Ga                 1.66804501    2.91540684   13.66948302
 N                  1.69619008    2.89835231   15.62610748
 Ga                 1.51309900    4.66537374   16.53591563
 N                  0.09269273    7.54882617    2.72818940
 Ga                 0.07929229    5.70524661    3.40072920
 N                  0.06933722    5.71436541    5.33317076
 Ga                 0.11013051    7.56870481    5.93878006
 N                  0.08211946    7.55978863    7.90221816
 Ga                 0.07423593    5.68783946    8.49634392
 N                  0.07213366    5.68350028   10.48303966
 Ga                 0.07477522    7.55184385   11.07809146
 N                  0.07346323    7.55002503   13.04571351
 Ga                 0.07490163    5.67959105   13.67026128
 N                  0.07616459    5.71034187   15.62857753
 Ga                 0.06936703    7.54741692   15.90867280
 N                 -1.62713183   10.28168164    2.59472747
 Ga                -1.47703349    8.47192891    3.39560908
 N                 -1.51196389    8.47979668    5.31570055
 Ga                -1.51224590   10.35890334    5.88889084
 N                 -1.52912211   10.33925615    7.86844738
 Ga                -1.54296136    8.48584609    8.49950963
 N                 -1.54647009    8.48377223   10.48462947
 Ga                -1.52074614   10.34532814   11.11948147
 N                 -1.50381504   10.35336076   13.10941001
 Ga                -1.54716190    8.48503903   13.66885648
 N                 -1.51886891    8.47041323   15.62745084
 Ga                -1.70521230   10.23791527   16.53406850
 N                  6.63893412    2.08034973    2.62669116
 Ga                 6.54783039    0.14369868    3.02133393
 N                  6.48901811    0.13828768    5.15412966
 Ga                 6.45463113    1.94988179    5.92131987
 N                  6.49071912    1.97311078    7.89397296
 Ga                 6.51370366    0.11591999    8.50039287
 N                  6.50904284    0.11950908   10.47094646
 Ga                 6.50705762    1.96260458   11.11826295
 N                  6.50532002    1.94194196   13.10893237
 Ga                 6.50224562    0.12380593   13.92395270
 N                  6.50260029    0.12292274   16.11403868
 Ga                 6.50361476    2.17441773   16.53549369
 Ga                 8.11910353    2.90470004    1.29461528
 N                  4.87233064    4.76155012    2.49311614
 Ga                 4.92033536    2.88268880    3.18049769
 N                  4.92124689    2.92325417    5.21474224
 Ga                 4.90681223    4.77248794    5.83693178
 N                  4.89977403    4.77038442    7.83474874
 Ga                 4.89795388    2.92397119    8.51089961
 N                  4.90391535    2.91932769   10.49335580
 Ga                 4.87916845    4.78023114   11.12380496
 N                  4.86436715    4.78436694   13.11184977
 Ga                 4.90966927    2.91466075   13.66928007
 N                  4.88070351    2.89752899   15.62587130
 Ga                 5.06548926    4.66505971   16.53519182
 N                  6.50955134    3.83856864   17.67894661
 N                  3.27615003    7.55997017    2.62556766
 N                  3.28691142    5.68831823    5.15853604
 Ga                 3.29669446    7.55409277    5.82440903
 N                  3.29185387    7.55191560    7.82241513
 Ga                 3.29718894    5.70301246    8.47730087
 N                  3.29128731    5.69700256   10.45465870
 Ga                 3.29324258    7.53421603   11.11325217
 N                  3.28972263    7.51264586   13.10741446
 Ga                 3.28844932    5.69101271   13.92323097
 N                  3.28882725    5.69021295   16.11405010
 Ga                 3.28912263    7.72795828   16.52007605
 Ga                 3.42009757    9.51770150    1.57020391
 N                  1.70281267   10.34814528    2.55337664
 Ga                 1.70788951    8.58065598    3.21625029
 N                  1.68293227    8.48359236    5.21637908
 Ga                 1.67382523   10.35617122    5.81690113
 N                  1.68246759   10.34338027    7.82623975
 Ga                 1.70212653    8.49352913    8.48828400
 N                  1.69402079    8.48635527   10.47802722
 Ga                 1.66750067   10.34266468   11.12573200
 N                  1.64879990   10.35256622   13.11585264
 Ga                 1.69261311    8.48317302   13.66862155
 N                  1.66249835    8.46609848   15.63052485
 Ga                 1.83589494   10.24482549   16.51885309
 N                  3.28911727    9.40616678   17.63778882
 N                  9.57629126    2.07749869    2.65981211
 Ga                 9.64410573    0.17104926    3.20491192
 N                  9.72655615    0.15806310    5.21754129
 Ga                 9.76699379    1.95344656    5.97571840
 N                  9.73515847    1.97477491    7.93103119
 Ga                 9.72983340    0.09969046    8.49239996
 N                  9.72324614    0.10597237   10.48120401
 Ga                 9.72098821    1.97970673   11.07412961
 N                  9.72046917    1.97799140   13.04334882
 Ga                 9.72246601    0.10942354   13.66704002
 N                  9.72178868    0.14294560   15.62935765
 Ga                 9.72122900    1.98224478   15.90756415
 N                  8.12439199    4.63133897    2.59703844
 Ga                 8.11471678    2.92462339    3.67174829
 N                  8.11945227    2.92051754    5.52820423
 Ga                 8.12481111    4.85119295    5.89132140
 N                  8.11880293    4.79848130    7.87154439
 Ga                 8.10479604    2.92373345    8.48664960
 N                  8.10340021    2.91865176   10.47906444
 Ga                 8.12695685    4.77668653   11.11980166
 N                  8.14430945    4.78358693   13.11050919
 Ga                 8.10146529    2.91386513   13.66922718
 N                  8.12771620    2.89592019   15.62741347
 Ga                 7.94781715    4.66865965   16.53535478
 N                  6.49881898    7.53800537    2.58434406
 Ga                 6.52794835    5.71494854    3.12555259
 N                  6.50872948    5.68380178    5.17537798
 Ga                 6.47675762    7.54449258    5.82869106
 N                  6.49764622    7.55070448    7.83103597
 Ga                 6.49677761    5.70303047    8.49241954
 N                  6.50166283    5.68720419   10.47919208
 Ga                 6.50330808    7.55511853   11.07404041
 N                  6.50383979    7.55091074   13.04171948
 Ga                 6.50462234    5.68082518   13.66990624
 N                  6.50262821    5.71120368   15.62772367
 Ga                 6.50828955    7.54785292   15.90814383
 N                  4.87573448   10.39112487    2.50740740
 Ga                 4.95705310    8.48304823    3.15705261
 N                  4.88668418    8.49703126    5.17610873
 Ga                 4.91870826   10.35352838    5.78294402
 N                  4.90516337   10.34348058    7.79962142
 Ga                 4.89401821    8.49128454    8.45907783
 N                  4.88891896    8.48702404   10.45819786
 Ga                 4.91572277   10.34182964   11.11644621
 N                  4.93069624   10.35253675   13.10930892
 Ga                 4.88585876    8.48420978   13.66786604
 N                  4.91531652    8.46681018   15.62942851
 Ga                 4.74200159   10.24473473   16.51905475
 O                  0.08388149    3.86373554   -0.40480689
 C                  0.64073832    2.77908735   -1.16036583
 H                  1.61328487    2.44097663   -0.76560397
 H                 -0.04126578    1.91444780   -1.20175864
 H                  0.79579378    3.14382069   -2.18734060
 Ga                 3.21680792    5.65504704    3.13971097
 H                  0.02020770    7.50519360    1.70470014
 C                  4.81856605    4.72642246    0.99463769
 H                  5.72464128    5.18962319    0.57463208
 H                  3.88629683    4.24597248    0.65764921

